* NGSPICE file created from bgr_core.ext - technology: sky130A

.subckt bgr_core VDPWR VGND ua[0] ui_in[0]
X0 VDPWR.t11 M1.G0 M1.S1 VDPWR.t10 sky130_fd_pr__pfet_01v8_lvt ad=1.45 pd=10.58 as=0.725 ps=5.29 w=5 l=3
X1 M1.G0 M1.S1 RCTAT_lay_0.A VGND.t7 sky130_fd_pr__nfet_01v8_lvt ad=0.725 pd=5.29 as=0.725 ps=5.29 w=5 l=3
X2 M1.G0 ui_in[0].t2 VDPWR.t44 VDPWR.t43 sky130_fd_pr__pfet_01v8 ad=0.348 pd=2.98 as=0.348 ps=2.98 w=1.2 l=1
X3 RCTAT_lay_0.A RCTAT_lay_0.sky130_fd_pr__res_xhigh_po_0p35_7LQ4N7_1.R2 VGND.t13 sky130_fd_pr__res_xhigh_po_0p35 l=4.08
X4 M1.S1 M1.G0 VDPWR.t5 VDPWR.t4 sky130_fd_pr__pfet_01v8_lvt ad=0.725 pd=5.29 as=0.725 ps=5.29 w=5 l=3
X5 VGND.t31 VGND.t33 RPTAT_lay_0.B sky130_fd_pr__pnp_05v5_W3p40L3p40
**devattr s=462400,2720 d=48028815,56131
X6 M1.S1 M1.G0 VDPWR.t1 VDPWR.t0 sky130_fd_pr__pfet_01v8_lvt ad=0.725 pd=5.29 as=1.45 ps=10.58 w=5 l=3
X7 M1.G0 M1.S1 RCTAT_lay_0.A VGND.t7 sky130_fd_pr__nfet_01v8_lvt ad=0.725 pd=5.29 as=0.725 ps=5.29 w=5 l=3
X8 inv_0.Y ui_in[0].t4 VDPWR.t40 VDPWR.t39 sky130_fd_pr__pfet_01v8 ad=0.58 pd=4.58 as=0.58 ps=4.58 w=2 l=0.5
X9 ua[0].t6 RL_lay_0.sky130_fd_pr__res_xhigh_po_0p35_RTNBCE_0.R2 VGND.t21 sky130_fd_pr__res_xhigh_po_0p35 l=4.18
X10 RL_lay_0.R3.R1 RL_lay_0.sky130_fd_pr__res_xhigh_po_0p35_RTNBCE_0.R2 VGND.t17 sky130_fd_pr__res_xhigh_po_0p35 l=4.18
X11 VDPWR.t15 M1.G0 M1.G0 VDPWR.t14 sky130_fd_pr__pfet_01v8_lvt ad=0.725 pd=5.29 as=0.725 ps=5.29 w=5 l=3
X12 VGND.t29 VGND.t28 Q1.Emitter sky130_fd_pr__pnp_05v5_W3p40L3p40
**devattr s=462400,2720 d=48028815,56131
X13 ME2.S ui_in[0].t0 M1.S1 VGND.t24 sky130_fd_pr__nfet_01v8 ad=0.29 pd=2.58 as=0.29 ps=2.58 w=1 l=0.3
X14 RCTAT_lay_0.sky130_fd_pr__res_xhigh_po_0p35_7LQ4N7_2.R1 RCTAT_lay_0.sky130_fd_pr__res_xhigh_po_0p35_7LQ4N7_1.R2 VGND.t27 sky130_fd_pr__res_xhigh_po_0p35 l=4.08
X15 VGND.t36 VGND.t35 RPTAT_lay_0.B sky130_fd_pr__pnp_05v5_W3p40L3p40
**devattr s=462400,2720 d=48028815,56131
X16 VGND.t29 VGND.t37 RPTAT_lay_0.B sky130_fd_pr__pnp_05v5_W3p40L3p40
**devattr s=462400,2720 d=48028815,56131
X17 VGND.t26 RCTAT_lay_0.sky130_fd_pr__res_xhigh_po_0p35_7LQ4N7_5.R2 VGND.t25 sky130_fd_pr__res_xhigh_po_0p35 l=4.08
X18 VDPWR.t19 M1.G0 M1.G0 VDPWR.t18 sky130_fd_pr__pfet_01v8_lvt ad=0.725 pd=5.29 as=0.725 ps=5.29 w=5 l=3
X19 Q1.Emitter M1.S1 M1.S1 VGND.t6 sky130_fd_pr__nfet_01v8_lvt ad=1.45 pd=10.58 as=0.725 ps=5.29 w=5 l=3
X20 RCTAT_lay_0.A M1.S1 M1.G0 VGND.t7 sky130_fd_pr__nfet_01v8_lvt ad=1.45 pd=10.58 as=0.725 ps=5.29 w=5 l=3
X21 ME1.S ui_in[0].t3 VDPWR.t42 VDPWR.t41 sky130_fd_pr__pfet_01v8 ad=0.348 pd=2.98 as=0.348 ps=2.98 w=1.2 l=1
X22 RL_lay_0.R3.R1 RL_lay_0.R4.R2 VGND.t16 sky130_fd_pr__res_xhigh_po_0p35 l=4.18
X23 VDPWR.t3 M1.G0 M1.S1 VDPWR.t2 sky130_fd_pr__pfet_01v8_lvt ad=0.725 pd=5.29 as=0.725 ps=5.29 w=5 l=3
X24 M1.S1 M1.S1 Q1.Emitter VGND.t3 sky130_fd_pr__nfet_01v8_lvt ad=0.725 pd=5.29 as=0.725 ps=5.29 w=5 l=3
X25 RCTAT_lay_0.A M1.S1 M1.G0 VGND.t7 sky130_fd_pr__nfet_01v8_lvt ad=0.725 pd=5.29 as=0.725 ps=5.29 w=5 l=3
X26 VGND.t31 VGND.t30 RPTAT_lay_0.B sky130_fd_pr__pnp_05v5_W3p40L3p40
**devattr s=462400,2720 d=48028815,56131
X27 M1.S1 M1.S1 Q1.Emitter VGND.t1 sky130_fd_pr__nfet_01v8_lvt ad=0.725 pd=5.29 as=1.45 ps=10.58 w=5 l=3
X28 inv_0.Y ui_in[0].t1 VGND.t23 VGND.t22 sky130_fd_pr__nfet_01v8 ad=0.145 pd=1.58 as=0.145 ps=1.58 w=0.5 l=0.5
X29 VGND.t29 VGND.t38 RPTAT_lay_0.B sky130_fd_pr__pnp_05v5_W3p40L3p40
**devattr s=462400,2720 d=48028815,56131
X30 RCTAT_lay_0.A RPTAT_lay_0.B VGND.t0 sky130_fd_pr__res_xhigh_po_0p35 l=3.2
X31 RCTAT_lay_0.sky130_fd_pr__res_xhigh_po_0p35_7LQ4N7_2.R1 RCTAT_lay_0.sky130_fd_pr__res_xhigh_po_0p35_7LQ4N7_3.R2 VGND.t20 sky130_fd_pr__res_xhigh_po_0p35 l=4.08
X32 ua[0].t1 M1.G0 VDPWR.t25 VDPWR.t24 sky130_fd_pr__pfet_01v8_lvt ad=0.725 pd=5.29 as=1.45 ps=10.58 w=5 l=3
X33 VGND.t15 RL_lay_0.R4.R2 VGND.t14 sky130_fd_pr__res_xhigh_po_0p35 l=4.18
X34 MSU1.S M1.S1 VGND.t9 VGND.t8 sky130_fd_pr__nfet_01v8 ad=0.29 pd=2.58 as=0.29 ps=2.58 w=1 l=2
X35 M1.G0 ME1.S ME2.S VGND.t10 sky130_fd_pr__nfet_01v8 ad=0.145 pd=1.58 as=0.145 ps=1.58 w=0.5 l=0.15
X36 VGND.t31 VGND.t32 RPTAT_lay_0.B sky130_fd_pr__pnp_05v5_W3p40L3p40
**devattr s=462400,2720 d=48028815,56131
X37 ME1.S ME1.S VDPWR.t38 VDPWR.t37 sky130_fd_pr__pfet_01v8 ad=0.29 pd=2.58 as=0.29 ps=2.58 w=1 l=2
X38 ua[0].t5 M1.G0 VDPWR.t33 VDPWR.t32 sky130_fd_pr__pfet_01v8_lvt ad=0.725 pd=5.29 as=0.725 ps=5.29 w=5 l=3
X39 VDPWR.t35 M1.G0 ua[0].t0 VDPWR.t34 sky130_fd_pr__pfet_01v8_lvt ad=1.45 pd=10.58 as=0.725 ps=5.29 w=5 l=3
X40 M1.G0 M1.G0 VDPWR.t13 VDPWR.t12 sky130_fd_pr__pfet_01v8_lvt ad=0.725 pd=5.29 as=1.45 ps=10.58 w=5 l=3
X41 VGND.t29 VGND.t34 RPTAT_lay_0.B sky130_fd_pr__pnp_05v5_W3p40L3p40
**devattr s=462400,2720 d=48028815,56131
X42 RCTAT_lay_0.sky130_fd_pr__res_xhigh_po_0p35_7LQ4N7_4.R1 RCTAT_lay_0.sky130_fd_pr__res_xhigh_po_0p35_7LQ4N7_3.R2 VGND.t19 sky130_fd_pr__res_xhigh_po_0p35 l=4.08
X43 Q1.Emitter M1.S1 M1.S1 VGND.t2 sky130_fd_pr__nfet_01v8_lvt ad=0.725 pd=5.29 as=0.725 ps=5.29 w=5 l=3
X44 VDPWR.t7 M1.G0 M1.S1 VDPWR.t6 sky130_fd_pr__pfet_01v8_lvt ad=0.725 pd=5.29 as=0.725 ps=5.29 w=5 l=3
X45 M1.S1 M1.G0 VDPWR.t9 VDPWR.t8 sky130_fd_pr__pfet_01v8_lvt ad=0.725 pd=5.29 as=0.725 ps=5.29 w=5 l=3
X46 RCTAT_lay_0.A M1.S1 M1.G0 VGND.t7 sky130_fd_pr__nfet_01v8_lvt ad=0.725 pd=5.29 as=0.725 ps=5.29 w=5 l=3
X47 M1.G0 M1.S1 RCTAT_lay_0.A VGND.t7 sky130_fd_pr__nfet_01v8_lvt ad=0.725 pd=5.29 as=1.45 ps=10.58 w=5 l=3
X48 VDPWR.t27 M1.G0 ua[0].t3 VDPWR.t26 sky130_fd_pr__pfet_01v8_lvt ad=0.725 pd=5.29 as=0.725 ps=5.29 w=5 l=3
X49 ua[0].t4 M1.G0 VDPWR.t29 VDPWR.t28 sky130_fd_pr__pfet_01v8_lvt ad=0.725 pd=5.29 as=0.725 ps=5.29 w=5 l=3
X50 RCTAT_lay_0.sky130_fd_pr__res_xhigh_po_0p35_7LQ4N7_4.R1 RCTAT_lay_0.sky130_fd_pr__res_xhigh_po_0p35_7LQ4N7_5.R2 VGND.t18 sky130_fd_pr__res_xhigh_po_0p35 l=4.08
X51 MSU1.S MSU1.S ME1.S VDPWR.t36 sky130_fd_pr__pfet_01v8 ad=0.29 pd=2.58 as=0.29 ps=2.58 w=1 l=2
X52 M1.G0 M1.G0 VDPWR.t21 VDPWR.t20 sky130_fd_pr__pfet_01v8_lvt ad=0.725 pd=5.29 as=0.725 ps=5.29 w=5 l=3
X53 VDPWR.t23 M1.G0 M1.G0 VDPWR.t22 sky130_fd_pr__pfet_01v8_lvt ad=1.45 pd=10.58 as=0.725 ps=5.29 w=5 l=3
X54 M1.S1 inv_0.Y VGND.t12 VGND.t11 sky130_fd_pr__nfet_01v8 ad=0.145 pd=1.58 as=0.145 ps=1.58 w=0.5 l=0.5
X55 M1.G0 M1.G0 VDPWR.t17 VDPWR.t16 sky130_fd_pr__pfet_01v8_lvt ad=0.725 pd=5.29 as=0.725 ps=5.29 w=5 l=3
X56 VDPWR.t31 M1.G0 ua[0].t2 VDPWR.t30 sky130_fd_pr__pfet_01v8_lvt ad=0.725 pd=5.29 as=0.725 ps=5.29 w=5 l=3
X57 Q1.Emitter M1.S1 M1.S1 VGND.t4 sky130_fd_pr__nfet_01v8_lvt ad=0.725 pd=5.29 as=0.725 ps=5.29 w=5 l=3
X58 M1.S1 M1.S1 Q1.Emitter VGND.t5 sky130_fd_pr__nfet_01v8_lvt ad=0.725 pd=5.29 as=0.725 ps=5.29 w=5 l=3
X59 VGND.t36 VGND.t39 RPTAT_lay_0.B sky130_fd_pr__pnp_05v5_W3p40L3p40
**devattr s=462400,2720 d=48028815,56131
R0 ui_in[0] ui_in[0].t0 274.108
R1 ui_in[0] ui_in[0].t4 248.4
R2 ui_in[0] ui_in[0].t3 180.921
R3 ui_in[0] ui_in[0].t2 180.921
R4 ui_in[0] ui_in[0].t1 176.101
R5 ui_in[0].n7 ui_in[0] 22.8534
R6 ui_in[0] ui_in[0].n6 22.8534
R7 ui_in[0] ui_in[0].n8 14.8416
R8 ui_in[0].n2 ui_in[0] 12.7032
R9 ui_in[0].n3 ui_in[0] 9.5505
R10 ui_in[0].n3 ui_in[0] 9.47907
R11 ui_in[0].n4 ui_in[0] 8.72531
R12 ui_in[0].n6 ui_in[0].n5 4.55586
R13 ui_in[0].n4 ui_in[0] 4.55362
R14 ui_in[0].n8 ui_in[0].n7 4.54514
R15 ui_in[0].n1 ui_in[0].n0 4.5005
R16 ui_in[0].n5 ui_in[0].n4 2.5572
R17 ui_in[0] ui_in[0].n3 0.383312
R18 ui_in[0].n8 ui_in[0].n0 0.0893889
R19 ui_in[0].n5 ui_in[0].n0 0.0893889
R20 ui_in[0].n7 ui_in[0].n1 0.0701429
R21 ui_in[0].n6 ui_in[0].n2 0.0505
R22 ui_in[0].n2 ui_in[0].n1 0.00942857
R23 ua[0].n38 ua[0].n37 585
R24 ua[0].n38 ua[0].n28 585
R25 ua[0].n38 ua[0].n27 585
R26 ua[0].n38 ua[0] 585
R27 ua[0].n39 ua[0].n38 585
R28 ua[0].n38 ua[0].n25 585
R29 ua[0].n38 ua[0].n13 585
R30 ua[0].n60 ua[0].n4 585
R31 ua[0] ua[0].n60 585
R32 ua[0].n60 ua[0].n3 585
R33 ua[0].n60 ua[0].n59 289.262
R34 ua[0].n60 ua[0].n2 289.26
R35 ua[0].n49 ua[0].n46 192.279
R36 ua[0].n47 ua[0].n46 144.278
R37 ua[0].n16 ua[0].t6 40.8142
R38 ua[0].n16 ua[0] 33.275
R39 ua[0].n22 ua[0].n13 25.4862
R40 ua[0].n37 ua[0].n29 25.4709
R41 ua[0].n49 ua[0].n48 24.5584
R42 ua[0].n52 ua[0].n2 19.6002
R43 ua[0].n59 ua[0].n5 19.5986
R44 ua[0].n36 ua[0].n28 16.5652
R45 ua[0].n25 ua[0].n24 16.5652
R46 ua[0].n31 ua[0].n27 15.0593
R47 ua[0].n39 ua[0].n12 15.0593
R48 ua[0].n5 ua[0].n4 15.0593
R49 ua[0].n52 ua[0].n3 15.0593
R50 ua[0].n59 ua[0].n58 14.6037
R51 ua[0].n7 ua[0].n2 14.5505
R52 ua[0] ua[0].n47 13.7368
R53 ua[0].n26 ua[0] 13.5534
R54 ua[0].n40 ua[0] 13.5534
R55 ua[0].n48 ua[0] 13.5534
R56 ua[0] ua[0].n0 13.5534
R57 ua[0] ua[0].n1 13.5534
R58 ua[0].n27 ua[0].n26 12.0476
R59 ua[0].n40 ua[0].n39 12.0476
R60 ua[0].n4 ua[0].n0 12.0476
R61 ua[0].n3 ua[0].n1 12.0476
R62 ua[0].n31 ua[0].n28 10.5417
R63 ua[0].n25 ua[0].n12 10.5417
R64 ua[0].n50 ua[0].n49 9.51453
R65 ua[0].n24 ua[0].n23 9.3005
R66 ua[0].n12 ua[0].n11 9.3005
R67 ua[0].n41 ua[0].n40 9.3005
R68 ua[0].n36 ua[0].n35 9.3005
R69 ua[0].n32 ua[0].n31 9.3005
R70 ua[0].n26 ua[0].n10 9.3005
R71 ua[0].n48 ua[0].n45 9.3005
R72 ua[0].n53 ua[0].n52 9.3005
R73 ua[0].n54 ua[0].n1 9.3005
R74 ua[0].n6 ua[0].n5 9.3005
R75 ua[0].n51 ua[0].n0 9.3005
R76 ua[0].n37 ua[0].n36 9.03579
R77 ua[0].n24 ua[0].n13 9.03579
R78 ua[0].n47 ua[0].n45 6.74741
R79 ua[0].n38 ua[0].t0 5.7135
R80 ua[0].n38 ua[0].t5 5.7135
R81 ua[0].n46 ua[0].t3 5.7135
R82 ua[0].n46 ua[0].t1 5.7135
R83 ua[0].n60 ua[0].t2 5.7135
R84 ua[0].n60 ua[0].t4 5.7135
R85 ua[0].n33 ua[0].n29 4.53859
R86 ua[0].n56 ua[0].n55 4.5005
R87 ua[0].n34 ua[0].n33 4.5005
R88 ua[0].n30 ua[0].n8 4.5005
R89 ua[0].n14 ua[0].n9 4.5005
R90 ua[0].n22 ua[0].n21 4.5005
R91 ua[0].n56 ua[0].n50 1.69172
R92 ua[0].n17 ua[0].n16 1.55639
R93 ua[0].n57 ua[0].n44 1.30258
R94 ua[0].n43 ua[0].n42 1.1255
R95 ua[0].n20 ua[0] 1.0131
R96 ua[0].n20 ua[0].n19 0.870692
R97 ua[0].n58 ua[0].n57 0.84425
R98 ua[0].n57 ua[0].n7 0.84425
R99 ua[0].n15 ua[0] 0.764639
R100 ua[0].n21 ua[0].n20 0.477331
R101 ua[0].n15 ua[0] 0.361801
R102 ua[0].n18 ua[0] 0.193833
R103 ua[0].n17 ua[0] 0.181151
R104 ua[0].n19 ua[0].n15 0.0796667
R105 ua[0].n19 ua[0].n18 0.0796667
R106 ua[0].n41 ua[0].n11 0.0647857
R107 ua[0].n51 ua[0].n6 0.0647857
R108 ua[0].n54 ua[0].n53 0.0647857
R109 ua[0].n53 ua[0].n7 0.0621071
R110 ua[0].n42 ua[0].n10 0.0585357
R111 ua[0].n43 ua[0].n9 0.0576429
R112 ua[0].n55 ua[0].n51 0.05675
R113 ua[0].n44 ua[0].n8 0.0564524
R114 ua[0].n23 ua[0].n14 0.0496071
R115 ua[0].n35 ua[0].n34 0.04425
R116 ua[0].n33 ua[0].n8 0.0385952
R117 ua[0].n21 ua[0].n9 0.0385952
R118 ua[0].n32 ua[0].n30 0.0371071
R119 ua[0].n30 ua[0].n10 0.0281786
R120 ua[0].n34 ua[0].n32 0.0210357
R121 ua[0].n18 ua[0].n17 0.0184795
R122 ua[0].n14 ua[0].n11 0.0156786
R123 ua[0].n35 ua[0].n29 0.0138929
R124 ua[0].n58 ua[0].n6 0.0138929
R125 ua[0].n23 ua[0].n22 0.00853571
R126 ua[0].n55 ua[0].n54 0.00853571
R127 ua[0].n42 ua[0].n41 0.00675
R128 ua[0].n57 ua[0].n56 0.00570833
R129 ua[0].n44 ua[0].n43 0.00169048
R130 ua[0].n50 ua[0].n45 0.00139286
R131 VDPWR.n148 VDPWR.n107 9051.59
R132 VDPWR.n130 VDPWR.n127 3068.63
R133 VDPWR.n129 VDPWR.n106 1031.56
R134 VDPWR.t12 VDPWR.t10 638.889
R135 VDPWR VDPWR.t38 613.566
R136 VDPWR VDPWR.t44 608.804
R137 VDPWR VDPWR.t42 608.804
R138 VDPWR.n117 VDPWR.n116 585
R139 VDPWR.n98 VDPWR.n97 585
R140 VDPWR.n97 VDPWR.n90 585
R141 VDPWR.n97 VDPWR.n96 585
R142 VDPWR.n97 VDPWR 585
R143 VDPWR.n86 VDPWR.n85 585
R144 VDPWR.n85 VDPWR.n84 585
R145 VDPWR.n85 VDPWR.n79 585
R146 VDPWR.n85 VDPWR 585
R147 VDPWR.n74 VDPWR.n73 585
R148 VDPWR.n73 VDPWR.n72 585
R149 VDPWR.n73 VDPWR.n67 585
R150 VDPWR.n73 VDPWR 585
R151 VDPWR.n62 VDPWR.n61 585
R152 VDPWR.n61 VDPWR.n54 585
R153 VDPWR.n61 VDPWR.n60 585
R154 VDPWR.n61 VDPWR 585
R155 VDPWR.n50 VDPWR.n49 585
R156 VDPWR.n49 VDPWR.n48 585
R157 VDPWR.n49 VDPWR.n43 585
R158 VDPWR.n49 VDPWR 585
R159 VDPWR.n38 VDPWR.n37 585
R160 VDPWR.n37 VDPWR.n36 585
R161 VDPWR.n37 VDPWR.n31 585
R162 VDPWR.n37 VDPWR 585
R163 VDPWR.n26 VDPWR.n25 585
R164 VDPWR.n25 VDPWR.n18 585
R165 VDPWR.n25 VDPWR.n24 585
R166 VDPWR.n25 VDPWR 585
R167 VDPWR.n14 VDPWR.n13 585
R168 VDPWR.n13 VDPWR.n12 585
R169 VDPWR.n13 VDPWR.n7 585
R170 VDPWR.n13 VDPWR 585
R171 VDPWR.n163 VDPWR.n162 585
R172 VDPWR.n163 VDPWR.n3 585
R173 VDPWR.n163 VDPWR.n2 585
R174 VDPWR VDPWR.n163 585
R175 VDPWR.t22 VDPWR.n146 515.487
R176 VDPWR.n130 VDPWR.n129 496.325
R177 VDPWR.t20 VDPWR.t22 456.945
R178 VDPWR.t18 VDPWR.t20 456.945
R179 VDPWR.t16 VDPWR.t14 456.945
R180 VDPWR.t14 VDPWR.t12 456.945
R181 VDPWR.t10 VDPWR.t8 456.945
R182 VDPWR.t8 VDPWR.t6 456.945
R183 VDPWR.t6 VDPWR.t4 456.945
R184 VDPWR.t4 VDPWR.t2 456.945
R185 VDPWR.t2 VDPWR.t0 456.945
R186 VDPWR.t32 VDPWR.t34 405.45
R187 VDPWR.n116 VDPWR.n115 292.476
R188 VDPWR.n138 VDPWR.n137 281.416
R189 VDPWR.n112 VDPWR.n106 280.401
R190 VDPWR.n136 VDPWR.n127 259.389
R191 VDPWR.n143 VDPWR.n111 240
R192 VDPWR.n139 VDPWR.n110 240
R193 VDPWR.n147 VDPWR.t16 229.862
R194 VDPWR.n147 VDPWR.t18 227.083
R195 VDPWR.t39 VDPWR.t41 217.619
R196 VDPWR.n13 VDPWR.n6 197.698
R197 VDPWR.n163 VDPWR.n1 197.698
R198 VDPWR.n85 VDPWR.n78 197.698
R199 VDPWR.n73 VDPWR.n66 197.698
R200 VDPWR.n25 VDPWR.n19 197.698
R201 VDPWR.n97 VDPWR.n91 197.698
R202 VDPWR.n49 VDPWR.n42 197.698
R203 VDPWR.n37 VDPWR.n30 197.698
R204 VDPWR.n61 VDPWR.n55 197.698
R205 VDPWR.t26 VDPWR.t43 192.381
R206 VDPWR.n143 VDPWR.n142 185
R207 VDPWR.n141 VDPWR.n111 185
R208 VDPWR.n140 VDPWR.n139 185
R209 VDPWR.n138 VDPWR.n110 185
R210 VDPWR.t30 VDPWR.t37 183.81
R211 VDPWR.n144 VDPWR.n110 175.21
R212 VDPWR.n144 VDPWR.n143 175.21
R213 VDPWR.n137 VDPWR.n136 170.166
R214 VDPWR.t28 VDPWR.t36 170
R215 VDPWR.t36 VDPWR.t30 143.333
R216 VDPWR.t37 VDPWR.t32 129.524
R217 VDPWR.n137 VDPWR.n126 109.382
R218 VDPWR.t43 VDPWR.n108 106.668
R219 VDPWR.n136 VDPWR.n135 103.468
R220 VDPWR.n155 VDPWR.t35 92.781
R221 VDPWR.n152 VDPWR.t23 92.2351
R222 VDPWR.n102 VDPWR.t11 92.2351
R223 VDPWR.n131 VDPWR.n130 84.778
R224 VDPWR.n142 VDPWR.n112 79.0593
R225 VDPWR.n149 VDPWR.n106 74.5185
R226 VDPWR.n111 VDPWR.n109 72.7879
R227 VDPWR.n139 VDPWR.n109 72.7879
R228 VDPWR.n132 VDPWR.n131 61.9487
R229 VDPWR.n132 VDPWR.n127 59.4678
R230 VDPWR.n145 VDPWR.n109 56.1076
R231 VDPWR.t41 VDPWR.t26 51.4291
R232 VDPWR.t24 VDPWR.t39 44.2862
R233 VDPWR.n135 VDPWR.n126 40.1093
R234 VDPWR.n129 VDPWR.n128 39.9483
R235 VDPWR.n134 VDPWR.n133 27.9709
R236 VDPWR.n117 VDPWR 25.6005
R237 VDPWR.n142 VDPWR.n141 25.6005
R238 VDPWR.n141 VDPWR.n140 25.6005
R239 VDPWR.n140 VDPWR.n138 25.6005
R240 VDPWR.n99 VDPWR.n98 25.3691
R241 VDPWR.n87 VDPWR.n86 25.3691
R242 VDPWR.n75 VDPWR.n74 25.3691
R243 VDPWR.n63 VDPWR.n62 25.3691
R244 VDPWR.n51 VDPWR.n50 25.3691
R245 VDPWR.n39 VDPWR.n38 25.3691
R246 VDPWR.n27 VDPWR.n26 25.3691
R247 VDPWR.n15 VDPWR.n14 25.3691
R248 VDPWR.n162 VDPWR.n156 25.3691
R249 VDPWR.n128 VDPWR 21.4028
R250 VDPWR.n55 VDPWR 18.8127
R251 VDPWR.n91 VDPWR 18.8127
R252 VDPWR VDPWR.n42 18.8127
R253 VDPWR VDPWR.n30 18.8127
R254 VDPWR VDPWR.n78 18.8127
R255 VDPWR VDPWR.n66 18.8127
R256 VDPWR.n19 VDPWR 18.8127
R257 VDPWR VDPWR.n6 18.8127
R258 VDPWR VDPWR.n1 18.8127
R259 VDPWR.n146 VDPWR.t24 17.1844
R260 VDPWR.n90 VDPWR.n89 16.5652
R261 VDPWR.n84 VDPWR.n77 16.5652
R262 VDPWR.n72 VDPWR.n65 16.5652
R263 VDPWR.n54 VDPWR.n53 16.5652
R264 VDPWR.n48 VDPWR.n41 16.5652
R265 VDPWR.n36 VDPWR.n29 16.5652
R266 VDPWR.n18 VDPWR.n17 16.5652
R267 VDPWR.n12 VDPWR.n5 16.5652
R268 VDPWR.n161 VDPWR.n3 16.5652
R269 VDPWR.n134 VDPWR 16.0927
R270 VDPWR.n96 VDPWR.n92 15.0593
R271 VDPWR.n83 VDPWR.n79 15.0593
R272 VDPWR.n71 VDPWR.n67 15.0593
R273 VDPWR.n60 VDPWR.n56 15.0593
R274 VDPWR.n47 VDPWR.n43 15.0593
R275 VDPWR.n35 VDPWR.n31 15.0593
R276 VDPWR.n24 VDPWR.n20 15.0593
R277 VDPWR.n11 VDPWR.n7 15.0593
R278 VDPWR.n158 VDPWR.n2 15.0593
R279 VDPWR.n146 VDPWR.n145 14.3767
R280 VDPWR.n108 VDPWR.t28 14.2862
R281 VDPWR.n116 VDPWR.t40 14.283
R282 VDPWR.n95 VDPWR 13.5534
R283 VDPWR.n80 VDPWR 13.5534
R284 VDPWR.n68 VDPWR 13.5534
R285 VDPWR.n59 VDPWR 13.5534
R286 VDPWR.n44 VDPWR 13.5534
R287 VDPWR.n32 VDPWR 13.5534
R288 VDPWR.n23 VDPWR 13.5534
R289 VDPWR.n8 VDPWR 13.5534
R290 VDPWR VDPWR.n0 13.5534
R291 VDPWR.n96 VDPWR.n95 12.0476
R292 VDPWR.n80 VDPWR.n79 12.0476
R293 VDPWR.n68 VDPWR.n67 12.0476
R294 VDPWR.n60 VDPWR.n59 12.0476
R295 VDPWR.n44 VDPWR.n43 12.0476
R296 VDPWR.n32 VDPWR.n31 12.0476
R297 VDPWR.n24 VDPWR.n23 12.0476
R298 VDPWR.n8 VDPWR.n7 12.0476
R299 VDPWR.n2 VDPWR.n0 12.0476
R300 VDPWR.n92 VDPWR.n90 10.5417
R301 VDPWR.n84 VDPWR.n83 10.5417
R302 VDPWR.n72 VDPWR.n71 10.5417
R303 VDPWR.n56 VDPWR.n54 10.5417
R304 VDPWR.n48 VDPWR.n47 10.5417
R305 VDPWR.n36 VDPWR.n35 10.5417
R306 VDPWR.n20 VDPWR.n18 10.5417
R307 VDPWR.n12 VDPWR.n11 10.5417
R308 VDPWR.n158 VDPWR.n3 10.5417
R309 VDPWR.n135 VDPWR.n134 9.95606
R310 VDPWR.n120 VDPWR.n114 9.3005
R311 VDPWR.n122 VDPWR.n121 9.3005
R312 VDPWR.n123 VDPWR.n113 9.3005
R313 VDPWR.n125 VDPWR.n124 9.3005
R314 VDPWR.n89 VDPWR.n88 9.3005
R315 VDPWR.n93 VDPWR.n92 9.3005
R316 VDPWR.n95 VDPWR.n94 9.3005
R317 VDPWR.n77 VDPWR.n76 9.3005
R318 VDPWR.n83 VDPWR.n82 9.3005
R319 VDPWR.n81 VDPWR.n80 9.3005
R320 VDPWR.n65 VDPWR.n64 9.3005
R321 VDPWR.n71 VDPWR.n70 9.3005
R322 VDPWR.n69 VDPWR.n68 9.3005
R323 VDPWR.n53 VDPWR.n52 9.3005
R324 VDPWR.n57 VDPWR.n56 9.3005
R325 VDPWR.n59 VDPWR.n58 9.3005
R326 VDPWR.n41 VDPWR.n40 9.3005
R327 VDPWR.n47 VDPWR.n46 9.3005
R328 VDPWR.n45 VDPWR.n44 9.3005
R329 VDPWR.n29 VDPWR.n28 9.3005
R330 VDPWR.n35 VDPWR.n34 9.3005
R331 VDPWR.n33 VDPWR.n32 9.3005
R332 VDPWR.n17 VDPWR.n16 9.3005
R333 VDPWR.n21 VDPWR.n20 9.3005
R334 VDPWR.n23 VDPWR.n22 9.3005
R335 VDPWR.n5 VDPWR.n4 9.3005
R336 VDPWR.n11 VDPWR.n10 9.3005
R337 VDPWR.n9 VDPWR.n8 9.3005
R338 VDPWR.n161 VDPWR.n160 9.3005
R339 VDPWR.n159 VDPWR.n158 9.3005
R340 VDPWR.n157 VDPWR.n0 9.3005
R341 VDPWR.n98 VDPWR.n89 9.03579
R342 VDPWR.n86 VDPWR.n77 9.03579
R343 VDPWR.n74 VDPWR.n65 9.03579
R344 VDPWR.n62 VDPWR.n53 9.03579
R345 VDPWR.n50 VDPWR.n41 9.03579
R346 VDPWR.n38 VDPWR.n29 9.03579
R347 VDPWR.n26 VDPWR.n17 9.03579
R348 VDPWR.n14 VDPWR.n5 9.03579
R349 VDPWR.n162 VDPWR.n161 9.03579
R350 VDPWR.n118 VDPWR.n117 8.88299
R351 VDPWR.n131 VDPWR.n128 8.11358
R352 VDPWR.n120 VDPWR.n119 7.23727
R353 VDPWR.n124 VDPWR 6.75561
R354 VDPWR.n97 VDPWR.t1 5.7135
R355 VDPWR.n85 VDPWR.t5 5.7135
R356 VDPWR.n85 VDPWR.t3 5.7135
R357 VDPWR.n73 VDPWR.t9 5.7135
R358 VDPWR.n73 VDPWR.t7 5.7135
R359 VDPWR.n61 VDPWR.t13 5.7135
R360 VDPWR.n49 VDPWR.t17 5.7135
R361 VDPWR.n49 VDPWR.t15 5.7135
R362 VDPWR.n37 VDPWR.t21 5.7135
R363 VDPWR.n37 VDPWR.t19 5.7135
R364 VDPWR.n25 VDPWR.t25 5.7135
R365 VDPWR.n13 VDPWR.t29 5.7135
R366 VDPWR.n13 VDPWR.t27 5.7135
R367 VDPWR.n163 VDPWR.t33 5.7135
R368 VDPWR.n163 VDPWR.t31 5.7135
R369 VDPWR.n125 VDPWR.n113 5.20728
R370 VDPWR.n121 VDPWR.n113 5.20728
R371 VDPWR.n121 VDPWR.n120 5.20728
R372 VDPWR.n145 VDPWR.n144 4.89628
R373 VDPWR.n118 VDPWR.n115 4.86725
R374 VDPWR.n133 VDPWR.n107 4.5127
R375 VDPWR.n108 VDPWR.n107 4.5127
R376 VDPWR.n133 VDPWR.n132 3.97871
R377 VDPWR.n119 VDPWR 3.66716
R378 VDPWR.n119 VDPWR.n112 2.83752
R379 VDPWR.n105 VDPWR 2.71026
R380 VDPWR VDPWR.n115 2.6809
R381 VDPWR.n9 VDPWR.n6 2.16295
R382 VDPWR.n157 VDPWR.n1 2.16295
R383 VDPWR.n81 VDPWR.n78 2.16293
R384 VDPWR.n69 VDPWR.n66 2.16293
R385 VDPWR.n22 VDPWR.n19 2.16293
R386 VDPWR.n94 VDPWR.n91 2.16292
R387 VDPWR.n33 VDPWR.n30 2.16292
R388 VDPWR.n45 VDPWR.n42 2.16292
R389 VDPWR.n58 VDPWR.n55 2.16292
R390 VDPWR.n126 VDPWR.n125 1.80841
R391 VDPWR.n100 VDPWR.n99 1.0348
R392 VDPWR.n149 VDPWR.n148 1.0005
R393 VDPWR.n148 VDPWR.n147 1.0005
R394 VDPWR.n102 VDPWR.n101 0.554667
R395 VDPWR.n155 VDPWR.n154 0.5505
R396 VDPWR.n154 VDPWR.n153 0.5505
R397 VDPWR.n152 VDPWR.n151 0.5505
R398 VDPWR.n104 VDPWR.n103 0.546333
R399 VDPWR.n101 VDPWR.n100 0.546333
R400 VDPWR.n100 VDPWR.n87 0.488969
R401 VDPWR.n101 VDPWR.n75 0.488969
R402 VDPWR.n103 VDPWR.n63 0.488969
R403 VDPWR.n104 VDPWR.n51 0.488969
R404 VDPWR.n151 VDPWR.n39 0.488969
R405 VDPWR.n153 VDPWR.n27 0.488969
R406 VDPWR.n154 VDPWR.n15 0.488969
R407 VDPWR.n156 VDPWR.n155 0.488969
R408 VDPWR VDPWR.n118 0.420852
R409 VDPWR.n151 VDPWR.n150 0.271333
R410 VDPWR.n105 VDPWR.n104 0.271333
R411 VDPWR.n99 VDPWR.n88 0.143564
R412 VDPWR.n87 VDPWR.n76 0.143564
R413 VDPWR.n75 VDPWR.n64 0.143564
R414 VDPWR.n63 VDPWR.n52 0.143564
R415 VDPWR.n51 VDPWR.n40 0.143564
R416 VDPWR.n39 VDPWR.n28 0.143564
R417 VDPWR.n27 VDPWR.n16 0.143564
R418 VDPWR.n15 VDPWR.n4 0.143564
R419 VDPWR.n160 VDPWR.n156 0.143564
R420 VDPWR.n93 VDPWR.n88 0.113
R421 VDPWR.n94 VDPWR.n93 0.113
R422 VDPWR.n82 VDPWR.n76 0.113
R423 VDPWR.n82 VDPWR.n81 0.113
R424 VDPWR.n70 VDPWR.n64 0.113
R425 VDPWR.n70 VDPWR.n69 0.113
R426 VDPWR.n57 VDPWR.n52 0.113
R427 VDPWR.n58 VDPWR.n57 0.113
R428 VDPWR.n46 VDPWR.n40 0.113
R429 VDPWR.n46 VDPWR.n45 0.113
R430 VDPWR.n34 VDPWR.n28 0.113
R431 VDPWR.n34 VDPWR.n33 0.113
R432 VDPWR.n21 VDPWR.n16 0.113
R433 VDPWR.n22 VDPWR.n21 0.113
R434 VDPWR.n10 VDPWR.n4 0.113
R435 VDPWR.n10 VDPWR.n9 0.113
R436 VDPWR.n160 VDPWR.n159 0.113
R437 VDPWR.n159 VDPWR.n157 0.113
R438 VDPWR.n153 VDPWR.n152 0.108833
R439 VDPWR.n103 VDPWR.n102 0.108833
R440 VDPWR.n124 VDPWR.n123 0.0534412
R441 VDPWR.n123 VDPWR.n122 0.0534412
R442 VDPWR.n122 VDPWR.n114 0.0534412
R443 VDPWR VDPWR.n114 0.0328529
R444 VDPWR.n150 VDPWR.n149 0.0272241
R445 VDPWR.n150 VDPWR.n105 0.00466667
R446 VGND.t14 VGND.n703 472233
R447 VGND.n1318 VGND.n1317 16802.3
R448 VGND.n1289 VGND.n701 13956.4
R449 VGND.n1542 VGND.n314 10498.9
R450 VGND.n1908 VGND.n140 10479.1
R451 VGND.n1543 VGND.n402 6643.2
R452 VGND.n1526 VGND.n189 4475.09
R453 VGND.n1719 VGND.n208 4278.84
R454 VGND.n1720 VGND.n1719 4278.84
R455 VGND.n1298 VGND.n1297 3342.74
R456 VGND.n296 VGND.n291 3242.67
R457 VGND.n1087 VGND.n291 3178.67
R458 VGND.n1678 VGND.n296 3136
R459 VGND.n1678 VGND.n402 3093.33
R460 VGND.n1088 VGND.n1087 2752.62
R461 VGND.n1089 VGND.n1088 2024.28
R462 VGND.n1089 VGND.n692 1825.1
R463 VGND.n1878 VGND.n189 1578.57
R464 VGND.n1726 VGND.n305 1221.1
R465 VGND.n1317 VGND.n1316 1170
R466 VGND.n1750 VGND.n1749 1007.63
R467 VGND.n1749 VGND.n1748 1007.63
R468 VGND.n1748 VGND.n294 1007.63
R469 VGND.n1742 VGND.n294 1007.63
R470 VGND.n1742 VGND.n1741 1007.63
R471 VGND.n1735 VGND.n300 1007.63
R472 VGND.n1735 VGND.n1734 1007.63
R473 VGND.n1734 VGND.n1733 1007.63
R474 VGND.n1733 VGND.n301 1007.63
R475 VGND.n1727 VGND.n301 1007.63
R476 VGND.n1076 VGND.n1075 1007.63
R477 VGND.n1076 VGND.n944 1007.63
R478 VGND.n1082 VGND.n944 1007.63
R479 VGND.n1083 VGND.n1082 1007.63
R480 VGND.n1084 VGND.n1083 1007.63
R481 VGND.n942 VGND.n941 1007.63
R482 VGND.n941 VGND.n940 1007.63
R483 VGND.n940 VGND.n925 1007.63
R484 VGND.n934 VGND.n925 1007.63
R485 VGND.n934 VGND.n933 1007.63
R486 VGND.n1683 VGND.n305 968.808
R487 VGND.n1646 VGND.n432 908.258
R488 VGND.n1647 VGND.n1646 908.258
R489 VGND.n1647 VGND.n426 908.258
R490 VGND.n1653 VGND.n426 908.258
R491 VGND.n1654 VGND.n1653 908.258
R492 VGND.n422 VGND.n416 908.258
R493 VGND.n1668 VGND.n416 908.258
R494 VGND.n1668 VGND.n408 908.258
R495 VGND.n1682 VGND.n408 908.258
R496 VGND.n1683 VGND.n1682 908.258
R497 VGND.n2032 VGND.n117 876.106
R498 VGND.n124 VGND.n117 876.106
R499 VGND.n2025 VGND.n124 876.106
R500 VGND.n2025 VGND.n2024 876.106
R501 VGND.n2024 VGND.n2023 876.106
R502 VGND.n2017 VGND.n132 876.106
R503 VGND.n2017 VGND.n2016 876.106
R504 VGND.n2016 VGND.n2015 876.106
R505 VGND.n2015 VGND.n135 876.106
R506 VGND.n2008 VGND.n135 876.106
R507 VGND.n1119 VGND.n892 872.247
R508 VGND.n1125 VGND.n892 872.247
R509 VGND.n1126 VGND.n1125 872.247
R510 VGND.n1126 VGND.n888 872.247
R511 VGND.n1132 VGND.n888 872.247
R512 VGND.n1134 VGND.n883 872.247
R513 VGND.n1140 VGND.n883 872.247
R514 VGND.n1141 VGND.n1140 872.247
R515 VGND.n1141 VGND.n879 872.247
R516 VGND.n1147 VGND.n879 872.247
R517 VGND.n1542 VGND.n189 759.029
R518 VGND.n300 VGND.t29 682.952
R519 VGND.n942 VGND.t31 682.952
R520 VGND.t17 VGND.t21 663.014
R521 VGND.n0 VGND.t29 2.97516
R522 VGND.t16 VGND.t17 657.534
R523 VGND.n216 VGND.n2 1.98592
R524 VGND.n1558 VGND.n216 638.298
R525 VGND.n1215 VGND.n876 629.801
R526 VGND.n1215 VGND.n739 602.707
R527 VGND.n132 VGND.t36 593.806
R528 VGND.n1289 VGND.t14 593.664
R529 VGND.n1134 VGND.t31 591.189
R530 VGND.n1288 VGND.n702 586.866
R531 VGND.n1287 VGND.n701 585.47
R532 VGND.n701 VGND.n699 585
R533 VGND.n1285 VGND.n1284 585
R534 VGND.n1286 VGND.n1285 585
R535 VGND.n718 VGND.n707 585
R536 VGND.n707 VGND.n706 585
R537 VGND.n717 VGND.n716 585
R538 VGND.n716 VGND.n705 585
R539 VGND.n715 VGND.n714 585
R540 VGND.n715 VGND.n704 585
R541 VGND.n711 VGND.n702 585
R542 VGND.n1290 VGND.n1289 585
R543 VGND.n981 VGND.n959 585
R544 VGND.n980 VGND.n968 585
R545 VGND.n1001 VGND.n969 585
R546 VGND.n1000 VGND.n970 585
R547 VGND.n999 VGND.n971 585
R548 VGND.n996 VGND.n972 585
R549 VGND.n995 VGND.n973 585
R550 VGND.n992 VGND.n974 585
R551 VGND.n991 VGND.n975 585
R552 VGND.n988 VGND.n986 585
R553 VGND.n1043 VGND.n1042 585
R554 VGND.n1044 VGND.n1043 585
R555 VGND.n1757 VGND.n265 585
R556 VGND.n281 VGND.n264 585
R557 VGND.n287 VGND.n283 585
R558 VGND.n280 VGND.n279 585
R559 VGND.n276 VGND.n275 585
R560 VGND.n274 VGND.n244 585
R561 VGND.n1816 VGND.n243 585
R562 VGND.n1820 VGND.n238 585
R563 VGND.n234 VGND.n233 585
R564 VGND.n1826 VGND.n1825 585
R565 VGND.n1757 VGND.n1756 585
R566 VGND.n289 VGND.n264 585
R567 VGND.n288 VGND.n287 585
R568 VGND.n279 VGND.n278 585
R569 VGND.n277 VGND.n276 585
R570 VGND.n244 VGND.n242 585
R571 VGND.n1817 VGND.n1816 585
R572 VGND.n1820 VGND.n1819 585
R573 VGND.n241 VGND.n234 585
R574 VGND.n1825 VGND.n229 585
R575 VGND.n1680 VGND.n407 585
R576 VGND.n1682 VGND.n407 585
R577 VGND.n1671 VGND.n1670 585
R578 VGND.n1670 VGND.n408 585
R579 VGND.n1669 VGND.n414 585
R580 VGND.n1669 VGND.n1668 585
R581 VGND.n1665 VGND.n415 585
R582 VGND.n416 VGND.n415 585
R583 VGND.n423 VGND.n421 585
R584 VGND.n423 VGND.n422 585
R585 VGND.n1656 VGND.n424 585
R586 VGND.n1654 VGND.n424 585
R587 VGND.n1652 VGND.n420 585
R588 VGND.n1653 VGND.n1652 585
R589 VGND.n1651 VGND.n1650 585
R590 VGND.n1651 VGND.n426 585
R591 VGND.n431 VGND.n427 585
R592 VGND.n1647 VGND.n427 585
R593 VGND.n1645 VGND.n1644 585
R594 VGND.n1646 VGND.n1645 585
R595 VGND.n1681 VGND.n1680 585
R596 VGND.n1682 VGND.n1681 585
R597 VGND.n1671 VGND.n409 585
R598 VGND.n409 VGND.n408 585
R599 VGND.n1667 VGND.n414 585
R600 VGND.n1668 VGND.n1667 585
R601 VGND.n1666 VGND.n1665 585
R602 VGND.n1666 VGND.n416 585
R603 VGND.n421 VGND.n417 585
R604 VGND.n422 VGND.n417 585
R605 VGND.n1656 VGND.n1655 585
R606 VGND.n1655 VGND.n1654 585
R607 VGND.n425 VGND.n420 585
R608 VGND.n1653 VGND.n425 585
R609 VGND.n1650 VGND.n1649 585
R610 VGND.n1649 VGND.n426 585
R611 VGND.n1648 VGND.n431 585
R612 VGND.n1648 VGND.n1647 585
R613 VGND.n1644 VGND.n430 585
R614 VGND.n1646 VGND.n430 585
R615 VGND.n205 VGND.n201 585
R616 VGND.n1874 VGND.n1873 585
R617 VGND.n633 VGND.n200 585
R618 VGND.n639 VGND.n638 585
R619 VGND.n645 VGND.n644 585
R620 VGND.n643 VGND.n543 585
R621 VGND.n655 VGND.n654 585
R622 VGND.n653 VGND.n652 585
R623 VGND.n669 VGND.n668 585
R624 VGND.n667 VGND.n666 585
R625 VGND.n1862 VGND.n1861 585
R626 VGND.n212 VGND.n211 585
R627 VGND.n1855 VGND.n1854 585
R628 VGND.n1852 VGND.n223 585
R629 VGND.n1850 VGND.n1849 585
R630 VGND.n1846 VGND.n224 585
R631 VGND.n1845 VGND.n1842 585
R632 VGND.n1840 VGND.n225 585
R633 VGND.n1838 VGND.n1837 585
R634 VGND.n1834 VGND.n227 585
R635 VGND.n1833 VGND.n61 585
R636 VGND.n1833 VGND.n1832 585
R637 VGND.n1835 VGND.n1834 585
R638 VGND.n1837 VGND.n1836 585
R639 VGND.n1843 VGND.n225 585
R640 VGND.n1845 VGND.n1844 585
R641 VGND.n1847 VGND.n1846 585
R642 VGND.n1849 VGND.n1848 585
R643 VGND.n223 VGND.n222 585
R644 VGND.n1856 VGND.n1855 585
R645 VGND.n214 VGND.n212 585
R646 VGND.n1861 VGND.n1860 585
R647 VGND.n60 VGND.n57 585
R648 VGND.n2060 VGND.n2059 585
R649 VGND.n2059 VGND.n2058 585
R650 VGND.n1830 VGND.n1829 585
R651 VGND.n1830 VGND.n28 585
R652 VGND.n230 VGND.n64 585
R653 VGND.n2058 VGND.n64 585
R654 VGND.n985 VGND.n230 585
R655 VGND.n232 VGND.n230 585
R656 VGND.n1829 VGND.n1828 585
R657 VGND.n1004 VGND.n56 585
R658 VGND.n989 VGND.n988 585
R659 VGND.n991 VGND.n990 585
R660 VGND.n993 VGND.n992 585
R661 VGND.n995 VGND.n994 585
R662 VGND.n997 VGND.n996 585
R663 VGND.n999 VGND.n998 585
R664 VGND.n1000 VGND.n967 585
R665 VGND.n1002 VGND.n1001 585
R666 VGND.n968 VGND.n961 585
R667 VGND.n1005 VGND.n959 585
R668 VGND.n1005 VGND.n1004 585
R669 VGND.n2062 VGND.n2061 585
R670 VGND.n1035 VGND.n960 585
R671 VGND.n1039 VGND.n960 585
R672 VGND.n1037 VGND.n1036 585
R673 VGND.n1038 VGND.n1037 585
R674 VGND.n1034 VGND.n1007 585
R675 VGND.n1007 VGND.n1006 585
R676 VGND.n1033 VGND.n1032 585
R677 VGND.n1032 VGND.n1031 585
R678 VGND.n1009 VGND.n1008 585
R679 VGND.n1030 VGND.n1009 585
R680 VGND.n1028 VGND.n1027 585
R681 VGND.n1029 VGND.n1028 585
R682 VGND.n1026 VGND.n1010 585
R683 VGND.n1022 VGND.n1010 585
R684 VGND.n1025 VGND.n1024 585
R685 VGND.n1024 VGND.n1023 585
R686 VGND.n1012 VGND.n1011 585
R687 VGND.n1021 VGND.n1012 585
R688 VGND.n1019 VGND.n1018 585
R689 VGND.n1020 VGND.n1019 585
R690 VGND.n1017 VGND.n1014 585
R691 VGND.n1014 VGND.n1013 585
R692 VGND.n1016 VGND.n1015 585
R693 VGND.n1015 VGND.n896 585
R694 VGND.n1042 VGND.n1041 585
R695 VGND.n1041 VGND.n1040 585
R696 VGND.n1116 VGND.n1115 585
R697 VGND.n1117 VGND.n1116 585
R698 VGND.n1120 VGND.n894 585
R699 VGND.n1120 VGND.n1119 585
R700 VGND.n1122 VGND.n1121 585
R701 VGND.n1121 VGND.n892 585
R702 VGND.n891 VGND.n890 585
R703 VGND.n1125 VGND.n891 585
R704 VGND.n1128 VGND.n1127 585
R705 VGND.n1127 VGND.n1126 585
R706 VGND.n1129 VGND.n886 585
R707 VGND.n888 VGND.n886 585
R708 VGND.n1133 VGND.n887 585
R709 VGND.n1133 VGND.n1132 585
R710 VGND.n1135 VGND.n885 585
R711 VGND.n1135 VGND.n1134 585
R712 VGND.n1137 VGND.n1136 585
R713 VGND.n1136 VGND.n883 585
R714 VGND.n882 VGND.n881 585
R715 VGND.n1140 VGND.n882 585
R716 VGND.n1143 VGND.n1142 585
R717 VGND.n1142 VGND.n1141 585
R718 VGND.n1115 VGND.n1114 585
R719 VGND.n1114 VGND.n1113 585
R720 VGND.n1143 VGND.n880 585
R721 VGND.n1141 VGND.n880 585
R722 VGND.n1139 VGND.n881 585
R723 VGND.n1140 VGND.n1139 585
R724 VGND.n1138 VGND.n1137 585
R725 VGND.n1138 VGND.n883 585
R726 VGND.n885 VGND.n884 585
R727 VGND.n1134 VGND.n884 585
R728 VGND.n1131 VGND.n887 585
R729 VGND.n1132 VGND.n1131 585
R730 VGND.n1130 VGND.n1129 585
R731 VGND.n1130 VGND.n888 585
R732 VGND.n1128 VGND.n889 585