* NGSPICE file created from bgr_core.ext - technology: sky130A

.subckt bgr_core VDPWR VGND ua[0] ui_in[0]
X0 RL_lay_0.R3.R1 RL_lay_0.R4.R2 VGND.t21 sky130_fd_pr__res_xhigh_po_0p35 l=4.18
X1 VDPWR.t11 M1.G0 M1.S1 VDPWR.t10 sky130_fd_pr__pfet_01v8_lvt ad=1.45 pd=10.58 as=0.725 ps=5.29 w=5 l=3
X2 M1.G0 M1.S1 RCTAT_lay_0.A VGND.t11 sky130_fd_pr__nfet_01v8_lvt ad=0.725 pd=5.29 as=0.725 ps=5.29 w=5 l=3
X3 M1.G0 ui_in[0].t2 VDPWR.t44 VDPWR.t43 sky130_fd_pr__pfet_01v8 ad=0.348 pd=2.98 as=0.348 ps=2.98 w=1.2 l=1
X4 M1.S1 M1.G0 VDPWR.t5 VDPWR.t4 sky130_fd_pr__pfet_01v8_lvt ad=0.725 pd=5.29 as=0.725 ps=5.29 w=5 l=3
X5 VGND.t36 VGND.t38 RPTAT_lay_0.B sky130_fd_pr__pnp_05v5_W3p40L3p40
**devattr s=462400,2720 d=48607855,56241
X6 M1.S1 M1.G0 VDPWR.t1 VDPWR.t0 sky130_fd_pr__pfet_01v8_lvt ad=0.725 pd=5.29 as=1.45 ps=10.58 w=5 l=3
X7 M1.G0 M1.S1 RCTAT_lay_0.A VGND.t9 sky130_fd_pr__nfet_01v8_lvt ad=0.725 pd=5.29 as=0.725 ps=5.29 w=5 l=3
X8 inv_0.Y ui_in[0].t4 VDPWR.t40 VDPWR.t39 sky130_fd_pr__pfet_01v8 ad=0.58 pd=4.58 as=0.58 ps=4.58 w=2 l=0.5
X9 RL_lay_0.R3.R1 RL_lay_0.sky130_fd_pr__res_xhigh_po_0p35_RTNBCE_0.R2 VGND.t22 sky130_fd_pr__res_xhigh_po_0p35 l=4.18
X10 RCTAT_lay_0.A RCTAT_lay_0.sky130_fd_pr__res_xhigh_po_0p35_7LQ4N7_1.R2 VGND.t18 sky130_fd_pr__res_xhigh_po_0p35 l=4.08
X11 VDPWR.t15 M1.G0 M1.G0 VDPWR.t14 sky130_fd_pr__pfet_01v8_lvt ad=0.725 pd=5.29 as=0.725 ps=5.29 w=5 l=3
X12 VGND.t34 VGND.t33 Q1.Emitter sky130_fd_pr__pnp_05v5_W3p40L3p40
**devattr s=462400,2720 d=48607855,56241
X13 ME2.S ui_in[0].t0 M1.S1 VGND.t29 sky130_fd_pr__nfet_01v8 ad=0.29 pd=2.58 as=0.29 ps=2.58 w=1 l=0.3
X14 RCTAT_lay_0.sky130_fd_pr__res_xhigh_po_0p35_7LQ4N7_2.R1 RCTAT_lay_0.sky130_fd_pr__res_xhigh_po_0p35_7LQ4N7_3.R2 VGND.t25 sky130_fd_pr__res_xhigh_po_0p35 l=4.08
X15 VGND.t41 VGND.t40 RPTAT_lay_0.B sky130_fd_pr__pnp_05v5_W3p40L3p40
**devattr s=462400,2720 d=48607855,56241
X16 VGND.t34 VGND.t42 RPTAT_lay_0.B sky130_fd_pr__pnp_05v5_W3p40L3p40
**devattr s=462400,2720 d=48607855,56241
X17 VDPWR.t19 M1.G0 M1.G0 VDPWR.t18 sky130_fd_pr__pfet_01v8_lvt ad=0.725 pd=5.29 as=0.725 ps=5.29 w=5 l=3
X18 Q1.Emitter M1.S1 M1.S1 VGND.t6 sky130_fd_pr__nfet_01v8_lvt ad=1.45 pd=10.58 as=0.725 ps=5.29 w=5 l=3
X19 RCTAT_lay_0.A M1.S1 M1.G0 VGND.t12 sky130_fd_pr__nfet_01v8_lvt ad=1.45 pd=10.58 as=0.725 ps=5.29 w=5 l=3
X20 ME1.S ui_in[0].t3 VDPWR.t42 VDPWR.t41 sky130_fd_pr__pfet_01v8 ad=0.348 pd=2.98 as=0.348 ps=2.98 w=1.2 l=1
X21 ua[0].t6 RL_lay_0.sky130_fd_pr__res_xhigh_po_0p35_RTNBCE_0.R2 VGND.t26 sky130_fd_pr__res_xhigh_po_0p35 l=4.18
X22 RCTAT_lay_0.A RPTAT_lay_0.B VGND.t0 sky130_fd_pr__res_xhigh_po_0p35 l=3.2
X23 RCTAT_lay_0.sky130_fd_pr__res_xhigh_po_0p35_7LQ4N7_4.R1 RCTAT_lay_0.sky130_fd_pr__res_xhigh_po_0p35_7LQ4N7_5.R2 VGND.t23 sky130_fd_pr__res_xhigh_po_0p35 l=4.08
X24 VDPWR.t3 M1.G0 M1.S1 VDPWR.t2 sky130_fd_pr__pfet_01v8_lvt ad=0.725 pd=5.29 as=0.725 ps=5.29 w=5 l=3
X25 M1.S1 M1.S1 Q1.Emitter VGND.t3 sky130_fd_pr__nfet_01v8_lvt ad=0.725 pd=5.29 as=0.725 ps=5.29 w=5 l=3
X26 RCTAT_lay_0.A M1.S1 M1.G0 VGND.t8 sky130_fd_pr__nfet_01v8_lvt ad=0.725 pd=5.29 as=0.725 ps=5.29 w=5 l=3
X27 VGND.t36 VGND.t35 RPTAT_lay_0.B sky130_fd_pr__pnp_05v5_W3p40L3p40
**devattr s=462400,2720 d=48607855,56241
X28 M1.S1 M1.S1 Q1.Emitter VGND.t1 sky130_fd_pr__nfet_01v8_lvt ad=0.725 pd=5.29 as=1.45 ps=10.58 w=5 l=3
X29 inv_0.Y ui_in[0].t1 VGND.t28 VGND.t27 sky130_fd_pr__nfet_01v8 ad=0.145 pd=1.58 as=0.145 ps=1.58 w=0.5 l=0.5
X30 VGND.t34 VGND.t43 RPTAT_lay_0.B sky130_fd_pr__pnp_05v5_W3p40L3p40
**devattr s=462400,2720 d=48607855,56241
X31 ua[0].t2 M1.G0 VDPWR.t25 VDPWR.t24 sky130_fd_pr__pfet_01v8_lvt ad=0.725 pd=5.29 as=1.45 ps=10.58 w=5 l=3
X32 MSU1.S M1.S1 VGND.t14 VGND.t13 sky130_fd_pr__nfet_01v8 ad=0.29 pd=2.58 as=0.29 ps=2.58 w=1 l=2
X33 M1.G0 ME1.S ME2.S VGND.t15 sky130_fd_pr__nfet_01v8 ad=0.145 pd=1.58 as=0.145 ps=1.58 w=0.5 l=0.15
X34 VGND.t36 VGND.t37 RPTAT_lay_0.B sky130_fd_pr__pnp_05v5_W3p40L3p40
**devattr s=462400,2720 d=48607855,56241
X35 ME1.S ME1.S VDPWR.t38 VDPWR.t37 sky130_fd_pr__pfet_01v8 ad=0.29 pd=2.58 as=0.29 ps=2.58 w=1 l=2
X36 ua[0].t1 M1.G0 VDPWR.t33 VDPWR.t32 sky130_fd_pr__pfet_01v8_lvt ad=0.725 pd=5.29 as=0.725 ps=5.29 w=5 l=3
X37 VDPWR.t35 M1.G0 ua[0].t5 VDPWR.t34 sky130_fd_pr__pfet_01v8_lvt ad=1.45 pd=10.58 as=0.725 ps=5.29 w=5 l=3
X38 M1.G0 M1.G0 VDPWR.t13 VDPWR.t12 sky130_fd_pr__pfet_01v8_lvt ad=0.725 pd=5.29 as=1.45 ps=10.58 w=5 l=3
X39 RCTAT_lay_0.sky130_fd_pr__res_xhigh_po_0p35_7LQ4N7_2.R1 RCTAT_lay_0.sky130_fd_pr__res_xhigh_po_0p35_7LQ4N7_1.R2 VGND.t32 sky130_fd_pr__res_xhigh_po_0p35 l=4.08
X40 VGND.t34 VGND.t39 RPTAT_lay_0.B sky130_fd_pr__pnp_05v5_W3p40L3p40
**devattr s=462400,2720 d=48607855,56241
X41 Q1.Emitter M1.S1 M1.S1 VGND.t2 sky130_fd_pr__nfet_01v8_lvt ad=0.725 pd=5.29 as=0.725 ps=5.29 w=5 l=3
X42 VDPWR.t7 M1.G0 M1.S1 VDPWR.t6 sky130_fd_pr__pfet_01v8_lvt ad=0.725 pd=5.29 as=0.725 ps=5.29 w=5 l=3
X43 M1.S1 M1.G0 VDPWR.t9 VDPWR.t8 sky130_fd_pr__pfet_01v8_lvt ad=0.725 pd=5.29 as=0.725 ps=5.29 w=5 l=3
X44 RCTAT_lay_0.A M1.S1 M1.G0 VGND.t10 sky130_fd_pr__nfet_01v8_lvt ad=0.725 pd=5.29 as=0.725 ps=5.29 w=5 l=3
X45 M1.G0 M1.S1 RCTAT_lay_0.A VGND.t7 sky130_fd_pr__nfet_01v8_lvt ad=0.725 pd=5.29 as=1.45 ps=10.58 w=5 l=3
X46 VDPWR.t27 M1.G0 ua[0].t0 VDPWR.t26 sky130_fd_pr__pfet_01v8_lvt ad=0.725 pd=5.29 as=0.725 ps=5.29 w=5 l=3
X47 ua[0].t4 M1.G0 VDPWR.t29 VDPWR.t28 sky130_fd_pr__pfet_01v8_lvt ad=0.725 pd=5.29 as=0.725 ps=5.29 w=5 l=3
X48 MSU1.S MSU1.S ME1.S VDPWR.t36 sky130_fd_pr__pfet_01v8 ad=0.29 pd=2.58 as=0.29 ps=2.58 w=1 l=2
X49 VGND.t20 RL_lay_0.R4.R2 VGND.t19 sky130_fd_pr__res_xhigh_po_0p35 l=4.18
X50 M1.G0 M1.G0 VDPWR.t21 VDPWR.t20 sky130_fd_pr__pfet_01v8_lvt ad=0.725 pd=5.29 as=0.725 ps=5.29 w=5 l=3
X51 VDPWR.t23 M1.G0 M1.G0 VDPWR.t22 sky130_fd_pr__pfet_01v8_lvt ad=1.45 pd=10.58 as=0.725 ps=5.29 w=5 l=3
X52 M1.S1 inv_0.Y VGND.t17 VGND.t16 sky130_fd_pr__nfet_01v8 ad=0.145 pd=1.58 as=0.145 ps=1.58 w=0.5 l=0.5
X53 RCTAT_lay_0.sky130_fd_pr__res_xhigh_po_0p35_7LQ4N7_4.R1 RCTAT_lay_0.sky130_fd_pr__res_xhigh_po_0p35_7LQ4N7_3.R2 VGND.t24 sky130_fd_pr__res_xhigh_po_0p35 l=4.08
X54 M1.G0 M1.G0 VDPWR.t17 VDPWR.t16 sky130_fd_pr__pfet_01v8_lvt ad=0.725 pd=5.29 as=0.725 ps=5.29 w=5 l=3
X55 VDPWR.t31 M1.G0 ua[0].t3 VDPWR.t30 sky130_fd_pr__pfet_01v8_lvt ad=0.725 pd=5.29 as=0.725 ps=5.29 w=5 l=3
X56 Q1.Emitter M1.S1 M1.S1 VGND.t4 sky130_fd_pr__nfet_01v8_lvt ad=0.725 pd=5.29 as=0.725 ps=5.29 w=5 l=3
X57 M1.S1 M1.S1 Q1.Emitter VGND.t5 sky130_fd_pr__nfet_01v8_lvt ad=0.725 pd=5.29 as=0.725 ps=5.29 w=5 l=3
X58 VGND.t31 RCTAT_lay_0.sky130_fd_pr__res_xhigh_po_0p35_7LQ4N7_5.R2 VGND.t30 sky130_fd_pr__res_xhigh_po_0p35 l=4.08
X59 VGND.t41 VGND.t44 RPTAT_lay_0.B sky130_fd_pr__pnp_05v5_W3p40L3p40
**devattr s=462400,2720 d=48607855,56241
R0 ui_in[0] ui_in[0].t0 274.108
R1 ui_in[0] ui_in[0].t4 248.4
R2 ui_in[0] ui_in[0].t3 180.921
R3 ui_in[0] ui_in[0].t2 180.921
R4 ui_in[0] ui_in[0].t1 176.101
R5 ui_in[0].n7 ui_in[0] 22.8534
R6 ui_in[0] ui_in[0].n6 22.8534
R7 ui_in[0] ui_in[0].n8 14.8416
R8 ui_in[0].n2 ui_in[0] 12.7032
R9 ui_in[0].n3 ui_in[0] 9.5505
R10 ui_in[0].n3 ui_in[0] 9.47907
R11 ui_in[0].n4 ui_in[0] 8.72531
R12 ui_in[0].n6 ui_in[0].n5 4.55586
R13 ui_in[0].n4 ui_in[0] 4.55362
R14 ui_in[0].n8 ui_in[0].n7 4.54514
R15 ui_in[0].n1 ui_in[0].n0 4.5005
R16 ui_in[0].n5 ui_in[0].n4 2.5572
R17 ui_in[0] ui_in[0].n3 0.383312
R18 ui_in[0].n8 ui_in[0].n0 0.0893889
R19 ui_in[0].n5 ui_in[0].n0 0.0893889
R20 ui_in[0].n7 ui_in[0].n1 0.0701429
R21 ui_in[0].n6 ui_in[0].n2 0.0505
R22 ui_in[0].n2 ui_in[0].n1 0.00942857
R23 ua[0].n51 ua[0].n50 585
R24 ua[0].n51 ua[0].n6 585
R25 ua[0].n51 ua[0].n5 585
R26 ua[0].n51 ua[0] 585
R27 ua[0].n51 ua[0].n4 585
R28 ua[0].n51 ua[0].n3 585
R29 ua[0].n52 ua[0].n51 585
R30 ua[0].n27 ua[0].n23 585
R31 ua[0].n27 ua[0] 585
R32 ua[0].n28 ua[0].n27 585
R33 ua[0].n27 ua[0].n26 289.262
R34 ua[0].n27 ua[0].n21 289.26
R35 ua[0].n16 ua[0].n13 192.279
R36 ua[0].n14 ua[0].n13 144.278
R37 ua[0].n56 ua[0].t6 40.8142
R38 ua[0].n56 ua[0] 33.275
R39 ua[0].n53 ua[0].n52 25.4862
R40 ua[0].n50 ua[0].n7 25.4709
R41 ua[0].n16 ua[0].n15 24.5584
R42 ua[0].n21 ua[0].n20 19.6002
R43 ua[0].n26 ua[0].n25 19.5986
R44 ua[0].n49 ua[0].n6 16.5652
R45 ua[0].n3 ua[0].n2 16.5652
R46 ua[0].n8 ua[0].n5 15.0593
R47 ua[0].n36 ua[0].n4 15.0593
R48 ua[0].n25 ua[0].n23 15.0593
R49 ua[0].n28 ua[0].n20 15.0593
R50 ua[0].n26 ua[0].n10 14.6037
R51 ua[0].n21 ua[0].n11 14.5505
R52 ua[0] ua[0].n14 13.7368
R53 ua[0].n42 ua[0] 13.5534
R54 ua[0].n38 ua[0] 13.5534
R55 ua[0].n15 ua[0] 13.5534
R56 ua[0].n22 ua[0] 13.5534
R57 ua[0].n29 ua[0] 13.5534
R58 ua[0].n42 ua[0].n5 12.0476
R59 ua[0].n38 ua[0].n4 12.0476
R60 ua[0].n23 ua[0].n22 12.0476
R61 ua[0].n29 ua[0].n28 12.0476
R62 ua[0].n8 ua[0].n6 10.5417
R63 ua[0].n36 ua[0].n3 10.5417
R64 ua[0].n17 ua[0].n16 9.51453
R65 ua[0].n2 ua[0].n1 9.3005
R66 ua[0].n37 ua[0].n36 9.3005
R67 ua[0].n39 ua[0].n38 9.3005
R68 ua[0].n49 ua[0].n48 9.3005
R69 ua[0].n9 ua[0].n8 9.3005
R70 ua[0].n43 ua[0].n42 9.3005
R71 ua[0].n15 ua[0].n12 9.3005
R72 ua[0].n20 ua[0].n19 9.3005
R73 ua[0].n30 ua[0].n29 9.3005
R74 ua[0].n25 ua[0].n24 9.3005
R75 ua[0].n22 ua[0].n18 9.3005
R76 ua[0].n50 ua[0].n49 9.03579
R77 ua[0].n52 ua[0].n2 9.03579
R78 ua[0].n14 ua[0].n12 6.74741
R79 ua[0].n51 ua[0].t5 5.7135
R80 ua[0].n51 ua[0].t1 5.7135
R81 ua[0].n13 ua[0].t0 5.7135
R82 ua[0].n13 ua[0].t2 5.7135
R83 ua[0].n27 ua[0].t3 5.7135
R84 ua[0].n27 ua[0].t4 5.7135
R85 ua[0].n46 ua[0].n7 4.53859
R86 ua[0].n32 ua[0].n31 4.5005
R87 ua[0].n47 ua[0].n46 4.5005
R88 ua[0].n45 ua[0].n44 4.5005
R89 ua[0].n35 ua[0].n0 4.5005
R90 ua[0].n54 ua[0].n53 4.5005
R91 ua[0].n32 ua[0].n17 1.69172
R92 ua[0].n57 ua[0].n56 1.55639
R93 ua[0].n34 ua[0].n33 1.30258
R94 ua[0].n41 ua[0].n40 1.1255
R95 ua[0].n57 ua[0].n55 0.947605
R96 ua[0].n55 ua[0] 0.921935
R97 ua[0].n33 ua[0].n10 0.84425
R98 ua[0].n33 ua[0].n11 0.84425
R99 ua[0].n55 ua[0].n54 0.531937
R100 ua[0] ua[0].n57 0.26425
R101 ua[0].n39 ua[0].n37 0.0647857
R102 ua[0].n24 ua[0].n18 0.0647857
R103 ua[0].n30 ua[0].n19 0.0647857
R104 ua[0].n19 ua[0].n11 0.0621071
R105 ua[0].n43 ua[0].n41 0.0585357
R106 ua[0].n40 ua[0].n0 0.0576429
R107 ua[0].n31 ua[0].n18 0.05675
R108 ua[0].n45 ua[0].n34 0.0564524
R109 ua[0].n35 ua[0].n1 0.0496071
R110 ua[0].n48 ua[0].n47 0.04425
R111 ua[0].n46 ua[0].n45 0.0385952
R112 ua[0].n54 ua[0].n0 0.0385952
R113 ua[0].n44 ua[0].n9 0.0371071
R114 ua[0].n44 ua[0].n43 0.0281786
R115 ua[0].n47 ua[0].n9 0.0210357
R116 ua[0].n37 ua[0].n35 0.0156786
R117 ua[0].n48 ua[0].n7 0.0138929
R118 ua[0].n24 ua[0].n10 0.0138929
R119 ua[0].n53 ua[0].n1 0.00853571
R120 ua[0].n31 ua[0].n30 0.00853571
R121 ua[0].n41 ua[0].n39 0.00675
R122 ua[0].n33 ua[0].n32 0.00570833
R123 ua[0].n40 ua[0].n34 0.00169048
R124 ua[0].n17 ua[0].n12 0.00139286
R125 VDPWR.n148 VDPWR.n107 9051.59
R126 VDPWR.n130 VDPWR.n127 3068.63
R127 VDPWR.n129 VDPWR.n106 1031.56
R128 VDPWR.t12 VDPWR.t10 638.889
R129 VDPWR VDPWR.t38 613.566
R130 VDPWR VDPWR.t44 608.804
R131 VDPWR VDPWR.t42 608.804
R132 VDPWR.n117 VDPWR.n116 585
R133 VDPWR.n98 VDPWR.n97 585
R134 VDPWR.n97 VDPWR.n90 585
R135 VDPWR.n97 VDPWR.n96 585
R136 VDPWR.n97 VDPWR 585
R137 VDPWR.n86 VDPWR.n85 585
R138 VDPWR.n85 VDPWR.n84 585
R139 VDPWR.n85 VDPWR.n79 585
R140 VDPWR.n85 VDPWR 585
R141 VDPWR.n74 VDPWR.n73 585
R142 VDPWR.n73 VDPWR.n72 585
R143 VDPWR.n73 VDPWR.n67 585
R144 VDPWR.n73 VDPWR 585
R145 VDPWR.n62 VDPWR.n61 585
R146 VDPWR.n61 VDPWR.n54 585
R147 VDPWR.n61 VDPWR.n60 585
R148 VDPWR.n61 VDPWR 585
R149 VDPWR.n50 VDPWR.n49 585
R150 VDPWR.n49 VDPWR.n48 585
R151 VDPWR.n49 VDPWR.n43 585
R152 VDPWR.n49 VDPWR 585
R153 VDPWR.n38 VDPWR.n37 585
R154 VDPWR.n37 VDPWR.n36 585
R155 VDPWR.n37 VDPWR.n31 585
R156 VDPWR.n37 VDPWR 585
R157 VDPWR.n26 VDPWR.n25 585
R158 VDPWR.n25 VDPWR.n18 585
R159 VDPWR.n25 VDPWR.n24 585
R160 VDPWR.n25 VDPWR 585
R161 VDPWR.n14 VDPWR.n13 585
R162 VDPWR.n13 VDPWR.n12 585
R163 VDPWR.n13 VDPWR.n7 585
R164 VDPWR.n13 VDPWR 585
R165 VDPWR.n163 VDPWR.n162 585
R166 VDPWR.n163 VDPWR.n3 585
R167 VDPWR.n163 VDPWR.n2 585
R168 VDPWR VDPWR.n163 585
R169 VDPWR.t22 VDPWR.n146 515.487
R170 VDPWR.n130 VDPWR.n129 496.325
R171 VDPWR.t20 VDPWR.t22 456.945
R172 VDPWR.t18 VDPWR.t20 456.945
R173 VDPWR.t16 VDPWR.t14 456.945
R174 VDPWR.t14 VDPWR.t12 456.945
R175 VDPWR.t10 VDPWR.t8 456.945
R176 VDPWR.t8 VDPWR.t6 456.945
R177 VDPWR.t6 VDPWR.t4 456.945
R178 VDPWR.t4 VDPWR.t2 456.945
R179 VDPWR.t2 VDPWR.t0 456.945
R180 VDPWR.t32 VDPWR.t34 405.45
R181 VDPWR.n116 VDPWR.n115 292.476
R182 VDPWR.n138 VDPWR.n137 281.416
R183 VDPWR.n112 VDPWR.n106 280.401
R184 VDPWR.n136 VDPWR.n127 259.389
R185 VDPWR.n143 VDPWR.n111 240
R186 VDPWR.n139 VDPWR.n110 240
R187 VDPWR.n147 VDPWR.t16 229.862
R188 VDPWR.n147 VDPWR.t18 227.083
R189 VDPWR.t39 VDPWR.t41 217.619
R190 VDPWR.n13 VDPWR.n6 197.698
R191 VDPWR.n163 VDPWR.n1 197.698
R192 VDPWR.n85 VDPWR.n78 197.698
R193 VDPWR.n73 VDPWR.n66 197.698
R194 VDPWR.n25 VDPWR.n19 197.698
R195 VDPWR.n97 VDPWR.n91 197.698
R196 VDPWR.n49 VDPWR.n42 197.698
R197 VDPWR.n37 VDPWR.n30 197.698
R198 VDPWR.n61 VDPWR.n55 197.698
R199 VDPWR.t26 VDPWR.t43 192.381
R200 VDPWR.n143 VDPWR.n142 185
R201 VDPWR.n141 VDPWR.n111 185
R202 VDPWR.n140 VDPWR.n139 185
R203 VDPWR.n138 VDPWR.n110 185
R204 VDPWR.t30 VDPWR.t37 183.81
R205 VDPWR.n144 VDPWR.n110 175.21
R206 VDPWR.n144 VDPWR.n143 175.21
R207 VDPWR.n137 VDPWR.n136 170.166
R208 VDPWR.t28 VDPWR.t36 170
R209 VDPWR.t36 VDPWR.t30 143.333
R210 VDPWR.t37 VDPWR.t32 129.524
R211 VDPWR.n137 VDPWR.n126 109.382
R212 VDPWR.t43 VDPWR.n108 106.668
R213 VDPWR.n136 VDPWR.n135 103.468
R214 VDPWR.n155 VDPWR.t35 92.781
R215 VDPWR.n152 VDPWR.t23 92.2351
R216 VDPWR.n102 VDPWR.t11 92.2351
R217 VDPWR.n131 VDPWR.n130 84.778
R218 VDPWR.n142 VDPWR.n112 79.0593
R219 VDPWR.n149 VDPWR.n106 74.5185
R220 VDPWR.n111 VDPWR.n109 72.7879
R221 VDPWR.n139 VDPWR.n109 72.7879
R222 VDPWR.n132 VDPWR.n131 61.9487
R223 VDPWR.n132 VDPWR.n127 59.4678
R224 VDPWR.n145 VDPWR.n109 56.1076
R225 VDPWR.t41 VDPWR.t26 51.4291
R226 VDPWR.t24 VDPWR.t39 44.2862
R227 VDPWR.n135 VDPWR.n126 40.1093
R228 VDPWR.n129 VDPWR.n128 39.9483
R229 VDPWR.n134 VDPWR.n133 27.9709
R230 VDPWR.n117 VDPWR 25.6005
R231 VDPWR.n142 VDPWR.n141 25.6005
R232 VDPWR.n141 VDPWR.n140 25.6005
R233 VDPWR.n140 VDPWR.n138 25.6005
R234 VDPWR.n99 VDPWR.n98 25.3691
R235 VDPWR.n87 VDPWR.n86 25.3691
R236 VDPWR.n75 VDPWR.n74 25.3691
R237 VDPWR.n63 VDPWR.n62 25.3691
R238 VDPWR.n51 VDPWR.n50 25.3691
R239 VDPWR.n39 VDPWR.n38 25.3691
R240 VDPWR.n27 VDPWR.n26 25.3691
R241 VDPWR.n15 VDPWR.n14 25.3691
R242 VDPWR.n162 VDPWR.n156 25.3691
R243 VDPWR.n128 VDPWR 21.4028
R244 VDPWR.n55 VDPWR 18.8127
R245 VDPWR.n91 VDPWR 18.8127
R246 VDPWR VDPWR.n42 18.8127
R247 VDPWR VDPWR.n30 18.8127
R248 VDPWR VDPWR.n78 18.8127
R249 VDPWR VDPWR.n66 18.8127
R250 VDPWR.n19 VDPWR 18.8127
R251 VDPWR VDPWR.n6 18.8127
R252 VDPWR VDPWR.n1 18.8127
R253 VDPWR.n146 VDPWR.t24 17.1844
R254 VDPWR.n90 VDPWR.n89 16.5652
R255 VDPWR.n84 VDPWR.n77 16.5652
R256 VDPWR.n72 VDPWR.n65 16.5652
R257 VDPWR.n54 VDPWR.n53 16.5652
R258 VDPWR.n48 VDPWR.n41 16.5652
R259 VDPWR.n36 VDPWR.n29 16.5652
R260 VDPWR.n18 VDPWR.n17 16.5652
R261 VDPWR.n12 VDPWR.n5 16.5652
R262 VDPWR.n161 VDPWR.n3 16.5652
R263 VDPWR.n134 VDPWR 16.0927
R264 VDPWR.n96 VDPWR.n92 15.0593
R265 VDPWR.n83 VDPWR.n79 15.0593
R266 VDPWR.n71 VDPWR.n67 15.0593
R267 VDPWR.n60 VDPWR.n56 15.0593
R268 VDPWR.n47 VDPWR.n43 15.0593
R269 VDPWR.n35 VDPWR.n31 15.0593
R270 VDPWR.n24 VDPWR.n20 15.0593
R271 VDPWR.n11 VDPWR.n7 15.0593
R272 VDPWR.n158 VDPWR.n2 15.0593
R273 VDPWR.n146 VDPWR.n145 14.3767
R274 VDPWR.n108 VDPWR.t28 14.2862
R275 VDPWR.n116 VDPWR.t40 14.283
R276 VDPWR.n95 VDPWR 13.5534
R277 VDPWR.n80 VDPWR 13.5534
R278 VDPWR.n68 VDPWR 13.5534
R279 VDPWR.n59 VDPWR 13.5534
R280 VDPWR.n44 VDPWR 13.5534
R281 VDPWR.n32 VDPWR 13.5534
R282 VDPWR.n23 VDPWR 13.5534
R283 VDPWR.n8 VDPWR 13.5534
R284 VDPWR VDPWR.n0 13.5534
R285 VDPWR.n96 VDPWR.n95 12.0476
R286 VDPWR.n80 VDPWR.n79 12.0476
R287 VDPWR.n68 VDPWR.n67 12.0476
R288 VDPWR.n60 VDPWR.n59 12.0476
R289 VDPWR.n44 VDPWR.n43 12.0476
R290 VDPWR.n32 VDPWR.n31 12.0476
R291 VDPWR.n24 VDPWR.n23 12.0476
R292 VDPWR.n8 VDPWR.n7 12.0476
R293 VDPWR.n2 VDPWR.n0 12.0476
R294 VDPWR.n92 VDPWR.n90 10.5417
R295 VDPWR.n84 VDPWR.n83 10.5417
R296 VDPWR.n72 VDPWR.n71 10.5417
R297 VDPWR.n56 VDPWR.n54 10.5417
R298 VDPWR.n48 VDPWR.n47 10.5417
R299 VDPWR.n36 VDPWR.n35 10.5417
R300 VDPWR.n20 VDPWR.n18 10.5417
R301 VDPWR.n12 VDPWR.n11 10.5417
R302 VDPWR.n158 VDPWR.n3 10.5417
R303 VDPWR.n135 VDPWR.n134 9.95606
R304 VDPWR.n120 VDPWR.n114 9.3005
R305 VDPWR.n122 VDPWR.n121 9.3005
R306 VDPWR.n123 VDPWR.n113 9.3005
R307 VDPWR.n125 VDPWR.n124 9.3005
R308 VDPWR.n89 VDPWR.n88 9.3005
R309 VDPWR.n93 VDPWR.n92 9.3005
R310 VDPWR.n95 VDPWR.n94 9.3005
R311 VDPWR.n77 VDPWR.n76 9.3005
R312 VDPWR.n83 VDPWR.n82 9.3005
R313 VDPWR.n81 VDPWR.n80 9.3005
R314 VDPWR.n65 VDPWR.n64 9.3005
R315 VDPWR.n71 VDPWR.n70 9.3005
R316 VDPWR.n69 VDPWR.n68 9.3005
R317 VDPWR.n53 VDPWR.n52 9.3005
R318 VDPWR.n57 VDPWR.n56 9.3005
R319 VDPWR.n59 VDPWR.n58 9.3005
R320 VDPWR.n41 VDPWR.n40 9.3005
R321 VDPWR.n47 VDPWR.n46 9.3005
R322 VDPWR.n45 VDPWR.n44 9.3005
R323 VDPWR.n29 VDPWR.n28 9.3005
R324 VDPWR.n35 VDPWR.n34 9.3005
R325 VDPWR.n33 VDPWR.n32 9.3005
R326 VDPWR.n17 VDPWR.n16 9.3005
R327 VDPWR.n21 VDPWR.n20 9.3005
R328 VDPWR.n23 VDPWR.n22 9.3005
R329 VDPWR.n5 VDPWR.n4 9.3005
R330 VDPWR.n11 VDPWR.n10 9.3005
R331 VDPWR.n9 VDPWR.n8 9.3005
R332 VDPWR.n161 VDPWR.n160 9.3005
R333 VDPWR.n159 VDPWR.n158 9.3005
R334 VDPWR.n157 VDPWR.n0 9.3005
R335 VDPWR.n98 VDPWR.n89 9.03579
R336 VDPWR.n86 VDPWR.n77 9.03579
R337 VDPWR.n74 VDPWR.n65 9.03579
R338 VDPWR.n62 VDPWR.n53 9.03579
R339 VDPWR.n50 VDPWR.n41 9.03579
R340 VDPWR.n38 VDPWR.n29 9.03579
R341 VDPWR.n26 VDPWR.n17 9.03579
R342 VDPWR.n14 VDPWR.n5 9.03579
R343 VDPWR.n162 VDPWR.n161 9.03579
R344 VDPWR.n118 VDPWR.n117 8.88299
R345 VDPWR.n131 VDPWR.n128 8.11358
R346 VDPWR.n120 VDPWR.n119 7.23727
R347 VDPWR.n124 VDPWR 6.75561
R348 VDPWR.n97 VDPWR.t1 5.7135
R349 VDPWR.n85 VDPWR.t5 5.7135
R350 VDPWR.n85 VDPWR.t3 5.7135
R351 VDPWR.n73 VDPWR.t9 5.7135
R352 VDPWR.n73 VDPWR.t7 5.7135
R353 VDPWR.n61 VDPWR.t13 5.7135
R354 VDPWR.n49 VDPWR.t17 5.7135
R355 VDPWR.n49 VDPWR.t15 5.7135
R356 VDPWR.n37 VDPWR.t21 5.7135
R357 VDPWR.n37 VDPWR.t19 5.7135
R358 VDPWR.n25 VDPWR.t25 5.7135
R359 VDPWR.n13 VDPWR.t29 5.7135
R360 VDPWR.n13 VDPWR.t27 5.7135
R361 VDPWR.n163 VDPWR.t33 5.7135
R362 VDPWR.n163 VDPWR.t31 5.7135
R363 VDPWR.n125 VDPWR.n113 5.20728
R364 VDPWR.n121 VDPWR.n113 5.20728
R365 VDPWR.n121 VDPWR.n120 5.20728
R366 VDPWR.n145 VDPWR.n144 4.89628
R367 VDPWR.n118 VDPWR.n115 4.86725
R368 VDPWR.n133 VDPWR.n107 4.5127
R369 VDPWR.n108 VDPWR.n107 4.5127
R370 VDPWR.n133 VDPWR.n132 3.97871
R371 VDPWR.n119 VDPWR 3.66716
R372 VDPWR.n119 VDPWR.n112 2.83752
R373 VDPWR.n105 VDPWR 2.71026
R374 VDPWR VDPWR.n115 2.6809
R375 VDPWR.n9 VDPWR.n6 2.16295
R376 VDPWR.n157 VDPWR.n1 2.16295
R377 VDPWR.n81 VDPWR.n78 2.16293
R378 VDPWR.n69 VDPWR.n66 2.16293
R379 VDPWR.n22 VDPWR.n19 2.16293
R380 VDPWR.n94 VDPWR.n91 2.16292
R381 VDPWR.n33 VDPWR.n30 2.16292
R382 VDPWR.n45 VDPWR.n42 2.16292
R383 VDPWR.n58 VDPWR.n55 2.16292
R384 VDPWR.n126 VDPWR.n125 1.80841
R385 VDPWR.n100 VDPWR.n99 1.0348
R386 VDPWR.n149 VDPWR.n148 1.0005
R387 VDPWR.n148 VDPWR.n147 1.0005
R388 VDPWR.n102 VDPWR.n101 0.554667
R389 VDPWR.n155 VDPWR.n154 0.5505
R390 VDPWR.n154 VDPWR.n153 0.5505
R391 VDPWR.n152 VDPWR.n151 0.5505
R392 VDPWR.n104 VDPWR.n103 0.546333
R393 VDPWR.n101 VDPWR.n100 0.546333
R394 VDPWR.n100 VDPWR.n87 0.488969
R395 VDPWR.n101 VDPWR.n75 0.488969
R396 VDPWR.n103 VDPWR.n63 0.488969
R397 VDPWR.n104 VDPWR.n51 0.488969
R398 VDPWR.n151 VDPWR.n39 0.488969
R399 VDPWR.n153 VDPWR.n27 0.488969
R400 VDPWR.n154 VDPWR.n15 0.488969
R401 VDPWR.n156 VDPWR.n155 0.488969
R402 VDPWR VDPWR.n118 0.420852
R403 VDPWR.n151 VDPWR.n150 0.271333
R404 VDPWR.n105 VDPWR.n104 0.271333
R405 VDPWR.n99 VDPWR.n88 0.143564
R406 VDPWR.n87 VDPWR.n76 0.143564
R407 VDPWR.n75 VDPWR.n64 0.143564
R408 VDPWR.n63 VDPWR.n52 0.143564
R409 VDPWR.n51 VDPWR.n40 0.143564
R410 VDPWR.n39 VDPWR.n28 0.143564
R411 VDPWR.n27 VDPWR.n16 0.143564
R412 VDPWR.n15 VDPWR.n4 0.143564
R413 VDPWR.n160 VDPWR.n156 0.143564
R414 VDPWR.n93 VDPWR.n88 0.113
R415 VDPWR.n94 VDPWR.n93 0.113
R416 VDPWR.n82 VDPWR.n76 0.113
R417 VDPWR.n82 VDPWR.n81 0.113
R418 VDPWR.n70 VDPWR.n64 0.113
R419 VDPWR.n70 VDPWR.n69 0.113
R420 VDPWR.n57 VDPWR.n52 0.113
R421 VDPWR.n58 VDPWR.n57 0.113
R422 VDPWR.n46 VDPWR.n40 0.113
R423 VDPWR.n46 VDPWR.n45 0.113
R424 VDPWR.n34 VDPWR.n28 0.113
R425 VDPWR.n34 VDPWR.n33 0.113
R426 VDPWR.n21 VDPWR.n16 0.113
R427 VDPWR.n22 VDPWR.n21 0.113
R428 VDPWR.n10 VDPWR.n4 0.113
R429 VDPWR.n10 VDPWR.n9 0.113
R430 VDPWR.n160 VDPWR.n159 0.113
R431 VDPWR.n159 VDPWR.n157 0.113
R432 VDPWR.n153 VDPWR.n152 0.108833
R433 VDPWR.n103 VDPWR.n102 0.108833
R434 VDPWR.n124 VDPWR.n123 0.0534412
R435 VDPWR.n123 VDPWR.n122 0.0534412
R436 VDPWR.n122 VDPWR.n114 0.0534412
R437 VDPWR VDPWR.n114 0.0328529
R438 VDPWR.n150 VDPWR.n149 0.0272241
R439 VDPWR.n150 VDPWR.n105 0.00466667
R440 VGND.n2016 VGND.n12 1.03126e+06
R441 VGND.n482 VGND.n12 466973
R442 VGND.n2015 VGND.t12 17193.8
R443 VGND.n1865 VGND.n200 11491.7
R444 VGND.n1865 VGND.n185 11130.5
R445 VGND.n1438 VGND.n245 9752.81
R446 VGND.n245 VGND.n243 9653
R447 VGND.n1779 VGND.n246 4684.8
R448 VGND.n2018 VGND.n11 3709.19
R449 VGND.n1735 VGND.n1734 3242.67
R450 VGND.n1734 VGND.n1733 3178.67
R451 VGND.n1736 VGND.n1735 3136
R452 VGND.n1737 VGND.n1736 3093.33
R453 VGND.n1733 VGND.n1732 2752.62
R454 VGND.n1737 VGND.n246 2589.87
R455 VGND.n1732 VGND.n31 2024.28
R456 VGND.n2013 VGND.n31 1825.1
R457 VGND.n1755 VGND.n273 1221.1
R458 VGND.n201 VGND.n180 1170.95
R459 VGND.n2015 VGND.n2014 1170
R460 VGND.n1507 VGND.n1506 1007.63
R461 VGND.n1507 VGND.n1501 1007.63
R462 VGND.n1513 VGND.n1501 1007.63
R463 VGND.n1514 VGND.n1513 1007.63
R464 VGND.n1515 VGND.n1514 1007.63
R465 VGND.n1521 VGND.n1499 1007.63
R466 VGND.n1522 VGND.n1521 1007.63
R467 VGND.n1524 VGND.n1522 1007.63
R468 VGND.n1524 VGND.n1523 1007.63
R469 VGND.n1523 VGND.n272 1007.63
R470 VGND.n1577 VGND.n273 968.808
R471 VGND.n1646 VGND.n1645 908.258
R472 VGND.n1645 VGND.n1644 908.258
R473 VGND.n1644 VGND.n1470 908.258
R474 VGND.n1547 VGND.n1470 908.258
R475 VGND.n1548 VGND.n1547 908.258
R476 VGND.n1558 VGND.n1557 908.258
R477 VGND.n1558 VGND.n1531 908.258
R478 VGND.n1564 VGND.n1531 908.258
R479 VGND.n1578 VGND.n1564 908.258
R480 VGND.n1578 VGND.n1577 908.258
R481 VGND.n1910 VGND.n1909 876.106
R482 VGND.n1909 VGND.n1908 876.106
R483 VGND.n1908 VGND.n161 876.106
R484 VGND.n1902 VGND.n161 876.106
R485 VGND.n1902 VGND.n1901 876.106
R486 VGND.n1898 VGND.n170 876.106
R487 VGND.n176 VGND.n170 876.106
R488 VGND.n1891 VGND.n176 876.106
R489 VGND.n1891 VGND.n1890 876.106
R490 VGND.n1890 VGND.n1889 876.106
R491 VGND.n1439 VGND.n1438 800.509
R492 VGND.n1499 VGND.t34 682.952
R493 VGND.t34 VGND.n1 2.96735
R494 VGND.n1942 VGND.n92 642.553
R495 VGND.n860 VGND.n77 642.553
R496 VGND.n3 VGND.n542 1.98592
R497 VGND.n1942 VGND.n1941 638.298
R498 VGND.n820 VGND.n77 638.298
R499 VGND.n542 VGND.n265 638.298
R500 VGND.n947 VGND.n738 629.801
R501 VGND.n947 VGND.n818 602.707
R502 VGND.n1898 VGND.t41 593.806
R503 VGND.n1791 VGND.n227 592.254
R504 VGND.n183 VGND.n182 589.514
R505 VGND.n1580 VGND.n1494 585
R506 VGND.n1578 VGND.n1494 585
R507 VGND.n1563 VGND.n1493 585
R508 VGND.n1564 VGND.n1563 585
R509 VGND.n1562 VGND.n1561 585
R510 VGND.n1562 VGND.n1531 585
R511 VGND.n1538 VGND.n1532 585
R512 VGND.n1558 VGND.n1532 585
R513 VGND.n1556 VGND.n1555 585
R514 VGND.n1557 VGND.n1556 585
R515 VGND.n1550 VGND.n1539 585
R516 VGND.n1548 VGND.n1539 585
R517 VGND.n1546 VGND.n1545 585
R518 VGND.n1547 VGND.n1546 585
R519 VGND.n1543 VGND.n1473 585
R520 VGND.n1543 VGND.n1470 585
R521 VGND.n1642 VGND.n1469 585
R522 VGND.n1644 VGND.n1469 585
R523 VGND.n1634 VGND.n1468 585
R524 VGND.n1645 VGND.n1468 585
R525 VGND.n1580 VGND.n1579 585
R526 VGND.n1579 VGND.n1578 585
R527 VGND.n1495 VGND.n1493 585
R528 VGND.n1564 VGND.n1495 585
R529 VGND.n1561 VGND.n1560 585
R530 VGND.n1560 VGND.n1531 585
R531 VGND.n1559 VGND.n1538 585
R532 VGND.n1559 VGND.n1558 585
R533 VGND.n1555 VGND.n1537 585
R534 VGND.n1557 VGND.n1537 585
R535 VGND.n1550 VGND.n1549 585
R536 VGND.n1549 VGND.n1548 585
R537 VGND.n1545 VGND.n1542 585
R538 VGND.n1547 VGND.n1542 585
R539 VGND.n1473 VGND.n1471 585
R540 VGND.n1471 VGND.n1470 585
R541 VGND.n1643 VGND.n1642 585
R542 VGND.n1644 VGND.n1643 585
R543 VGND.n1634 VGND.n557 585
R544 VGND.n1645 VGND.n557 585
R545 VGND.n1946 VGND.n1945 585
R546 VGND.n1945 VGND.n1944 585
R547 VGND.n1947 VGND.n88 585
R548 VGND.n88 VGND.n87 585
R549 VGND.n1949 VGND.n1948 585
R550 VGND.n1950 VGND.n1949 585
R551 VGND.n85 VGND.n84 585
R552 VGND.n1951 VGND.n85 585
R553 VGND.n1954 VGND.n1953 585
R554 VGND.n1953 VGND.n1952 585
R555 VGND.n1955 VGND.n83 585
R556 VGND.n86 VGND.n83 585
R557 VGND.n1957 VGND.n1956 585
R558 VGND.n1958 VGND.n1957 585
R559 VGND.n81 VGND.n80 585
R560 VGND.n1959 VGND.n81 585
R561 VGND.n1962 VGND.n1961 585
R562 VGND.n1961 VGND.n1960 585
R563 VGND.n1963 VGND.n79 585
R564 VGND.n82 VGND.n79 585
R565 VGND.n1965 VGND.n1964 585
R566 VGND.n1965 VGND.n78 585
R567 VGND.n1966 VGND.n72 585
R568 VGND.n1967 VGND.n1966 585
R569 VGND.n339 VGND.n338 585
R570 VGND.n411 VGND.n337 585
R571 VGND.n336 VGND.n334 585
R572 VGND.n418 VGND.n333 585
R573 VGND.n332 VGND.n330 585
R574 VGND.n425 VGND.n329 585
R575 VGND.n328 VGND.n326 585
R576 VGND.n432 VGND.n325 585
R577 VGND.n324 VGND.n321 585
R578 VGND.n439 VGND.n438 585
R579 VGND.n339 VGND.n295 585
R580 VGND.n411 VGND.n410 585
R581 VGND.n409 VGND.n334 585
R582 VGND.n418 VGND.n417 585
R583 VGND.n416 VGND.n330 585
R584 VGND.n425 VGND.n424 585
R585 VGND.n423 VGND.n326 585
R586 VGND.n432 VGND.n431 585
R587 VGND.n430 VGND.n321 585
R588 VGND.n438 VGND.n437 585
R589 VGND.n1300 VGND.n585 585
R590 VGND.n1299 VGND.n1298 585
R591 VGND.n1289 VGND.n1288 585
R592 VGND.n1287 VGND.n1286 585
R593 VGND.n1281 VGND.n1280 585
R594 VGND.n1279 VGND.n1278 585
R595 VGND.n692 VGND.n691 585
R596 VGND.n690 VGND.n594 585
R597 VGND.n666 VGND.n593 585
R598 VGND.n1305 VGND.n1304 585
R599 VGND.n665 VGND.n592 585
R600 VGND.n1314 VGND.n1313 585
R601 VGND.n688 VGND.n591 585
R602 VGND.n694 VGND.n693 585
R603 VGND.n685 VGND.n684 585
R604 VGND.n687 VGND.n686 585
R605 VGND.n683 VGND.n682 585
R606 VGND.n681 VGND.n680 585
R607 VGND.n1297 VGND.n586 585
R608 VGND.n1319 VGND.n1318 585
R609 VGND.n1465 VGND.n555 585
R610 VGND.n1465 VGND.n265 585
R611 VGND.n1464 VGND.n1463 585
R612 VGND.n1332 VGND.n559 585
R613 VGND.n1333 VGND.n1330 585
R614 VGND.n1456 VGND.n1335 585
R615 VGND.n1455 VGND.n1336 585
R616 VGND.n1454 VGND.n1338 585
R617 VGND.n1342 VGND.n1339 585
R618 VGND.n1449 VGND.n1344 585
R619 VGND.n1448 VGND.n1345 585
R620 VGND.n1447 VGND.n1347 585
R621 VGND.n1447 VGND.n1446 585
R622 VGND.n1448 VGND.n1341 585
R623 VGND.n1450 VGND.n1449 585
R624 VGND.n1452 VGND.n1339 585
R625 VGND.n1454 VGND.n1453 585
R626 VGND.n1455 VGND.n1331 585
R627 VGND.n1457 VGND.n1456 585
R628 VGND.n1459 VGND.n1330 585
R629 VGND.n1460 VGND.n559 585
R630 VGND.n1463 VGND.n1462 585
R631 VGND.n1328 VGND.n555 585
R632 VGND.n1329 VGND.n1328 585
R633 VGND.n1467 VGND.n556 585
R634 VGND.n1646 VGND.n1467 585
R635 VGND.n1649 VGND.n544 585
R636 VGND.n1658 VGND.n544 585
R637 VGND.n1327 VGND.n554 585
R638 VGND.n1322 VGND.n560 585
R639 VGND.n1324 VGND.n1323 585
R640 VGND.n1321 VGND.n583 585
R641 VGND.n1649 VGND.n1648 585
R642 VGND.n1647 VGND.n556 585
R643 VGND.n1647 VGND.n1646 585
R644 VGND.n1653 VGND.n553 585
R645 VGND.n1654 VGND.n552 585
R646 VGND.n1655 VGND.n551 585
R647 VGND.n580 VGND.n550 585
R648 VGND.n579 VGND.n578 585
R649 VGND.n575 VGND.n564 585
R650 VGND.n574 VGND.n571 585
R651 VGND.n570 VGND.n569 585
R652 VGND.n568 VGND.n566 585
R653 VGND.n565 VGND.n540 585
R654 VGND.n1661 VGND.n539 585
R655 VGND.n1661 VGND.n1660 585
R656 VGND.n541 VGND.n540 585
R657 VGND.n568 VGND.n567 585
R658 VGND.n572 VGND.n569 585
R659 VGND.n574 VGND.n573 585
R660 VGND.n576 VGND.n575 585
R661 VGND.n578 VGND.n577 585
R662 VGND.n550 VGND.n549 585
R663 VGND.n1656 VGND.n1655 585
R664 VGND.n1654 VGND.n548 585
R665 VGND.n1653 VGND.n1652 585
R666 VGND.n1670 VGND.n1669 585
R667 VGND.n463 VGND.n105 585
R668 VGND.n1936 VGND.n105 585
R669 VGND.n440 VGND.n101 585
R670 VGND.n441 VGND.n440 585
R671 VGND.n1938 VGND.n1937 585
R672 VGND.n1937 VGND.n1936 585
R673 VGND.n1665 VGND.n92 585
R674 VGND.n1667 VGND.n1666 585
R675 VGND.n1941 VGND.n1940 585
R676 VGND.n101 VGND.n99 585
R677 VGND.n1707 VGND.n99 585
R678 VGND.n469 VGND.n90 585
R679 VGND.n1943 VGND.n90 585
R680 VGND.n537 VGND.n536 585
R681 VGND.n534 VGND.n464 585
R682 VGND.n533 VGND.n531 585
R683 VGND.n529 VGND.n465 585
R684 VGND.n527 VGND.n526 585
R685 VGND.n523 VGND.n466 585
R686 VGND.n520 VGND.n519 585
R687 VGND.n517 VGND.n467 585
R688 VGND.n515 VGND.n514 585
R689 VGND.n511 VGND.n468 585
R690 VGND.n468 VGND.n92 585
R691 VGND.n470 VGND.n469 585
R692 VGND.n470 VGND.n91 585
R693 VGND.n511 VGND.n510 585
R694 VGND.n514 VGND.n513 585
R695 VGND.n512 VGND.n467 585
R696 VGND.n521 VGND.n520 585
R697 VGND.n523 VGND.n522 585
R698 VGND.n526 VGND.n525 585
R699 VGND.n524 VGND.n465 585
R700 VGND.n533 VGND.n532 585
R701 VGND.n534 VGND.n93 585
R702 VGND.n1941 VGND.n93 585
R703 VGND.n536 VGND.n535 585
R704 VGND.n486 VGND.n485 585
R705 VGND.n485 VGND.n484 585
R706 VGND.n488 VGND.n487 585
R707 VGND.n489 VGND.n488 585
R708 VGND.n481 VGND.n480 585
R709 VGND.n490 VGND.n481 585
R710 VGND.n493 VGND.n492 585
R711 VGND.n492 VGND.n491 585
R712 VGND.n494 VGND.n479 585
R713 VGND.n479 VGND.n478 585
R714 VGND.n496 VGND.n495 585
R715 VGND.n497 VGND.n496 585
R716 VGND.n476 VGND.n475 585
R717 VGND.n498 VGND.n476 585
R718 VGND.n501 VGND.n500 585
R719 VGND.n500 VGND.n499 585
R720 VGND.n502 VGND.n473 585
R721 VGND.n477 VGND.n473 585
R722 VGND.n504 VGND.n503 585
R723 VGND.n505 VGND.n504 585
R724 VGND.n474 VGND.n471 585
R725 VGND.n506 VGND.n471 585
R726 VGND.n508 VGND.n472 585
R727 VGND.n508 VGND.n507 585
R728 VGND.n288 VGND.n286 585
R729 VGND.n483 VGND.n288 585
R730 VGND.n1714 VGND.n1713 585
R731 VGND.n1715 VGND.n292 585
R732 VGND.n1717 VGND.n1716 585
R733 VGND.n1719 VGND.n291 585
R734 VGND.n1720 VGND.n285 585
R735 VGND.n1722 VGND.n284 585
R736 VGND.n1724 VGND.n1723 585
R737 VGND.n1726 VGND.n290 585