* NGSPICE file created from bgr_core.ext - technology: sky130A

.subckt bgr_core VDPWR VGND ua[0]
X0 RL_lay_0.R3.R1 RL_lay_0.R4.R2 VGND.t16 sky130_fd_pr__res_xhigh_po_0p35 l=4.18
X1 VDPWR.t11 M1.G0 M1.S1 VDPWR.t10 sky130_fd_pr__pfet_01v8_lvt ad=1.45 pd=10.58 as=0.725 ps=5.29 w=5 l=3
X2 M1.G0 M1.S1 RCTAT_lay_0.A VGND.t10 sky130_fd_pr__nfet_01v8_lvt ad=0.725 pd=5.29 as=0.725 ps=5.29 w=5 l=3
X3 M1.S1 M1.G0 VDPWR.t5 VDPWR.t4 sky130_fd_pr__pfet_01v8_lvt ad=0.725 pd=5.29 as=0.725 ps=5.29 w=5 l=3
X4 VGND.t20 VGND.t21 VGND.t19 sky130_fd_pr__res_xhigh_po_0p35 l=3.2
X5 VGND.t34 VGND.t36 RPTAT_lay_0.B sky130_fd_pr__pnp_05v5_W3p40L3p40
**devattr s=462400,2720 d=49018130,56065
X6 M1.S1 M1.G0 VDPWR.t1 VDPWR.t0 sky130_fd_pr__pfet_01v8_lvt ad=0.725 pd=5.29 as=1.45 ps=10.58 w=5 l=3
X7 M1.G0 M1.S1 RCTAT_lay_0.A VGND.t8 sky130_fd_pr__nfet_01v8_lvt ad=0.725 pd=5.29 as=0.725 ps=5.29 w=5 l=3
X8 RL_lay_0.R3.R1 RL_lay_0.sky130_fd_pr__res_xhigh_po_0p35_RTNBCE_0.R2 VGND.t17 sky130_fd_pr__res_xhigh_po_0p35 l=4.18
X9 RCTAT_lay_0.A RCTAT_lay_0.sky130_fd_pr__res_xhigh_po_0p35_7LQ4N7_1.R2 VGND.t24 sky130_fd_pr__res_xhigh_po_0p35 l=4.08
X10 VDPWR.t15 M1.G0 M1.G0 VDPWR.t14 sky130_fd_pr__pfet_01v8_lvt ad=0.725 pd=5.29 as=0.725 ps=5.29 w=5 l=3
X11 VGND.t32 VGND.t31 Q1.Emitter sky130_fd_pr__pnp_05v5_W3p40L3p40
**devattr s=462400,2720 d=49018130,56065
X12 RCTAT_lay_0.sky130_fd_pr__res_xhigh_po_0p35_7LQ4N7_2.R1 RCTAT_lay_0.sky130_fd_pr__res_xhigh_po_0p35_7LQ4N7_3.R2 VGND.t22 sky130_fd_pr__res_xhigh_po_0p35 l=4.08
X13 VGND.t39 VGND.t38 RPTAT_lay_0.B sky130_fd_pr__pnp_05v5_W3p40L3p40
**devattr s=462400,2720 d=49018130,56065
X14 VGND.t41 VGND.t40 RPTAT_lay_0.B sky130_fd_pr__pnp_05v5_W3p40L3p40
**devattr s=462400,2720 d=49018130,56065
X15 VDPWR.t19 M1.G0 M1.G0 VDPWR.t18 sky130_fd_pr__pfet_01v8_lvt ad=0.725 pd=5.29 as=0.725 ps=5.29 w=5 l=3
X16 Q1.Emitter M1.S1 M1.S1 VGND.t5 sky130_fd_pr__nfet_01v8_lvt ad=1.45 pd=10.58 as=0.725 ps=5.29 w=5 l=3
X17 RCTAT_lay_0.A M1.S1 M1.G0 VGND.t11 sky130_fd_pr__nfet_01v8_lvt ad=1.45 pd=10.58 as=0.725 ps=5.29 w=5 l=3
X18 ua[0].t6 RL_lay_0.sky130_fd_pr__res_xhigh_po_0p35_RTNBCE_0.R2 VGND.t18 sky130_fd_pr__res_xhigh_po_0p35 l=4.18
X19 RCTAT_lay_0.sky130_fd_pr__res_xhigh_po_0p35_7LQ4N7_4.R1 RCTAT_lay_0.sky130_fd_pr__res_xhigh_po_0p35_7LQ4N7_5.R2 VGND.t28 sky130_fd_pr__res_xhigh_po_0p35 l=4.08
X20 VDPWR.t3 M1.G0 M1.S1 VDPWR.t2 sky130_fd_pr__pfet_01v8_lvt ad=0.725 pd=5.29 as=0.725 ps=5.29 w=5 l=3
X21 M1.S1 M1.S1 Q1.Emitter VGND.t2 sky130_fd_pr__nfet_01v8_lvt ad=0.725 pd=5.29 as=0.725 ps=5.29 w=5 l=3
X22 RCTAT_lay_0.A M1.S1 M1.G0 VGND.t7 sky130_fd_pr__nfet_01v8_lvt ad=0.725 pd=5.29 as=0.725 ps=5.29 w=5 l=3
X23 VGND.t34 VGND.t33 RPTAT_lay_0.B sky130_fd_pr__pnp_05v5_W3p40L3p40
**devattr s=462400,2720 d=49018130,56065
X24 M1.S1 M1.S1 Q1.Emitter VGND.t0 sky130_fd_pr__nfet_01v8_lvt ad=0.725 pd=5.29 as=1.45 ps=10.58 w=5 l=3
X25 VGND.t45 VGND.t46 VGND.t44 sky130_fd_pr__res_xhigh_po_0p35 l=3.2
X26 VGND.t41 VGND.t42 RPTAT_lay_0.B sky130_fd_pr__pnp_05v5_W3p40L3p40
**devattr s=462400,2720 d=49018130,56065
X27 ua[0].t1 M1.G0 VDPWR.t25 VDPWR.t24 sky130_fd_pr__pfet_01v8_lvt ad=0.725 pd=5.29 as=1.45 ps=10.58 w=5 l=3
X28 MSU1.S M1.S1 VGND.t13 VGND.t12 sky130_fd_pr__nfet_01v8 ad=0.29 pd=2.58 as=0.29 ps=2.58 w=1 l=2
X29 M1.G0 MSU2.S M1.S1 VGND.t25 sky130_fd_pr__nfet_01v8 ad=0.145 pd=1.58 as=0.145 ps=1.58 w=0.5 l=0.15
X30 VGND.t34 VGND.t35 RPTAT_lay_0.B sky130_fd_pr__pnp_05v5_W3p40L3p40
**devattr s=462400,2720 d=49018130,56065
X31 MSU2.S MSU2.S VDPWR.t38 VDPWR.t37 sky130_fd_pr__pfet_01v8 ad=0.29 pd=2.58 as=0.29 ps=2.58 w=1 l=2
X32 ua[0].t3 M1.G0 VDPWR.t33 VDPWR.t32 sky130_fd_pr__pfet_01v8_lvt ad=0.725 pd=5.29 as=0.725 ps=5.29 w=5 l=3
X33 VDPWR.t35 M1.G0 ua[0].t0 VDPWR.t34 sky130_fd_pr__pfet_01v8_lvt ad=1.45 pd=10.58 as=0.725 ps=5.29 w=5 l=3
X34 M1.G0 M1.G0 VDPWR.t13 VDPWR.t12 sky130_fd_pr__pfet_01v8_lvt ad=0.725 pd=5.29 as=1.45 ps=10.58 w=5 l=3
X35 RCTAT_lay_0.sky130_fd_pr__res_xhigh_po_0p35_7LQ4N7_2.R1 RCTAT_lay_0.sky130_fd_pr__res_xhigh_po_0p35_7LQ4N7_1.R2 VGND.t23 sky130_fd_pr__res_xhigh_po_0p35 l=4.08
X36 VGND.t32 VGND.t37 RPTAT_lay_0.B sky130_fd_pr__pnp_05v5_W3p40L3p40
**devattr s=462400,2720 d=49018130,56065
X37 Q1.Emitter M1.S1 M1.S1 VGND.t1 sky130_fd_pr__nfet_01v8_lvt ad=0.725 pd=5.29 as=0.725 ps=5.29 w=5 l=3
X38 VDPWR.t7 M1.G0 M1.S1 VDPWR.t6 sky130_fd_pr__pfet_01v8_lvt ad=0.725 pd=5.29 as=0.725 ps=5.29 w=5 l=3
X39 M1.S1 M1.G0 VDPWR.t9 VDPWR.t8 sky130_fd_pr__pfet_01v8_lvt ad=0.725 pd=5.29 as=0.725 ps=5.29 w=5 l=3
X40 RCTAT_lay_0.A M1.S1 M1.G0 VGND.t9 sky130_fd_pr__nfet_01v8_lvt ad=0.725 pd=5.29 as=0.725 ps=5.29 w=5 l=3
X41 RCTAT_lay_0.A RPTAT_lay_0.B VGND.t27 sky130_fd_pr__res_xhigh_po_0p35 l=3.2
X42 M1.G0 M1.S1 RCTAT_lay_0.A VGND.t6 sky130_fd_pr__nfet_01v8_lvt ad=0.725 pd=5.29 as=1.45 ps=10.58 w=5 l=3
X43 VDPWR.t27 M1.G0 ua[0].t5 VDPWR.t26 sky130_fd_pr__pfet_01v8_lvt ad=0.725 pd=5.29 as=0.725 ps=5.29 w=5 l=3
X44 ua[0].t2 M1.G0 VDPWR.t29 VDPWR.t28 sky130_fd_pr__pfet_01v8_lvt ad=0.725 pd=5.29 as=0.725 ps=5.29 w=5 l=3
X45 MSU1.S MSU1.S MSU2.S VDPWR.t36 sky130_fd_pr__pfet_01v8 ad=0.29 pd=2.58 as=0.29 ps=2.58 w=1 l=2
X46 VGND.t15 RL_lay_0.R4.R2 VGND.t14 sky130_fd_pr__res_xhigh_po_0p35 l=4.18
X47 M1.G0 M1.G0 VDPWR.t21 VDPWR.t20 sky130_fd_pr__pfet_01v8_lvt ad=0.725 pd=5.29 as=0.725 ps=5.29 w=5 l=3
X48 VDPWR.t23 M1.G0 M1.G0 VDPWR.t22 sky130_fd_pr__pfet_01v8_lvt ad=1.45 pd=10.58 as=0.725 ps=5.29 w=5 l=3
X49 RCTAT_lay_0.sky130_fd_pr__res_xhigh_po_0p35_7LQ4N7_4.R1 RCTAT_lay_0.sky130_fd_pr__res_xhigh_po_0p35_7LQ4N7_3.R2 VGND.t26 sky130_fd_pr__res_xhigh_po_0p35 l=4.08
X50 M1.G0 M1.G0 VDPWR.t17 VDPWR.t16 sky130_fd_pr__pfet_01v8_lvt ad=0.725 pd=5.29 as=0.725 ps=5.29 w=5 l=3
X51 VDPWR.t31 M1.G0 ua[0].t4 VDPWR.t30 sky130_fd_pr__pfet_01v8_lvt ad=0.725 pd=5.29 as=0.725 ps=5.29 w=5 l=3
X52 Q1.Emitter M1.S1 M1.S1 VGND.t3 sky130_fd_pr__nfet_01v8_lvt ad=0.725 pd=5.29 as=0.725 ps=5.29 w=5 l=3
X53 M1.S1 M1.S1 Q1.Emitter VGND.t4 sky130_fd_pr__nfet_01v8_lvt ad=0.725 pd=5.29 as=0.725 ps=5.29 w=5 l=3
X54 VGND.t30 RCTAT_lay_0.sky130_fd_pr__res_xhigh_po_0p35_7LQ4N7_5.R2 VGND.t29 sky130_fd_pr__res_xhigh_po_0p35 l=4.08
X55 VGND.t41 VGND.t43 RPTAT_lay_0.B sky130_fd_pr__pnp_05v5_W3p40L3p40
**devattr s=462400,2720 d=49018130,56065
R0 ua[0].n51 ua[0].n50 585
R1 ua[0].n51 ua[0].n6 585
R2 ua[0].n51 ua[0].n5 585
R3 ua[0].n51 ua[0] 585
R4 ua[0].n51 ua[0].n4 585
R5 ua[0].n51 ua[0].n3 585
R6 ua[0].n52 ua[0].n51 585
R7 ua[0].n27 ua[0].n23 585
R8 ua[0].n27 ua[0] 585
R9 ua[0].n28 ua[0].n27 585
R10 ua[0].n27 ua[0].n26 289.262
R11 ua[0].n27 ua[0].n21 289.26
R12 ua[0].n16 ua[0].n13 192.279
R13 ua[0].n14 ua[0].n13 144.278
R14 ua[0].n56 ua[0].t6 40.8142
R15 ua[0].n56 ua[0] 33.275
R16 ua[0].n53 ua[0].n52 25.4862
R17 ua[0].n50 ua[0].n7 25.4709
R18 ua[0].n16 ua[0].n15 24.5584
R19 ua[0].n21 ua[0].n20 19.6002
R20 ua[0].n26 ua[0].n25 19.5986
R21 ua[0].n49 ua[0].n6 16.5652
R22 ua[0].n3 ua[0].n2 16.5652
R23 ua[0].n8 ua[0].n5 15.0593
R24 ua[0].n36 ua[0].n4 15.0593
R25 ua[0].n25 ua[0].n23 15.0593
R26 ua[0].n28 ua[0].n20 15.0593
R27 ua[0].n26 ua[0].n10 14.6037
R28 ua[0].n21 ua[0].n11 14.5505
R29 ua[0] ua[0].n14 13.7368
R30 ua[0].n42 ua[0] 13.5534
R31 ua[0].n38 ua[0] 13.5534
R32 ua[0].n15 ua[0] 13.5534
R33 ua[0].n22 ua[0] 13.5534
R34 ua[0].n29 ua[0] 13.5534
R35 ua[0].n42 ua[0].n5 12.0476
R36 ua[0].n38 ua[0].n4 12.0476
R37 ua[0].n23 ua[0].n22 12.0476
R38 ua[0].n29 ua[0].n28 12.0476
R39 ua[0].n8 ua[0].n6 10.5417
R40 ua[0].n36 ua[0].n3 10.5417
R41 ua[0].n17 ua[0].n16 9.51453
R42 ua[0].n2 ua[0].n1 9.3005
R43 ua[0].n37 ua[0].n36 9.3005
R44 ua[0].n39 ua[0].n38 9.3005
R45 ua[0].n49 ua[0].n48 9.3005
R46 ua[0].n9 ua[0].n8 9.3005
R47 ua[0].n43 ua[0].n42 9.3005
R48 ua[0].n15 ua[0].n12 9.3005
R49 ua[0].n20 ua[0].n19 9.3005
R50 ua[0].n30 ua[0].n29 9.3005
R51 ua[0].n25 ua[0].n24 9.3005
R52 ua[0].n22 ua[0].n18 9.3005
R53 ua[0].n50 ua[0].n49 9.03579
R54 ua[0].n52 ua[0].n2 9.03579
R55 ua[0].n14 ua[0].n12 6.74741
R56 ua[0].n51 ua[0].t0 5.7135
R57 ua[0].n51 ua[0].t3 5.7135
R58 ua[0].n13 ua[0].t5 5.7135
R59 ua[0].n13 ua[0].t1 5.7135
R60 ua[0].n27 ua[0].t4 5.7135
R61 ua[0].n27 ua[0].t2 5.7135
R62 ua[0].n46 ua[0].n7 4.53859
R63 ua[0].n32 ua[0].n31 4.5005
R64 ua[0].n47 ua[0].n46 4.5005
R65 ua[0].n45 ua[0].n44 4.5005
R66 ua[0].n35 ua[0].n0 4.5005
R67 ua[0].n54 ua[0].n53 4.5005
R68 ua[0].n32 ua[0].n17 1.69172
R69 ua[0].n57 ua[0].n56 1.55639
R70 ua[0].n34 ua[0].n33 1.30258
R71 ua[0].n41 ua[0].n40 1.1255
R72 ua[0].n57 ua[0].n55 0.947605
R73 ua[0].n55 ua[0] 0.921935
R74 ua[0].n33 ua[0].n10 0.84425
R75 ua[0].n33 ua[0].n11 0.84425
R76 ua[0].n55 ua[0].n54 0.531937
R77 ua[0] ua[0].n57 0.26425
R78 ua[0].n39 ua[0].n37 0.0647857
R79 ua[0].n24 ua[0].n18 0.0647857
R80 ua[0].n30 ua[0].n19 0.0647857
R81 ua[0].n19 ua[0].n11 0.0621071
R82 ua[0].n43 ua[0].n41 0.0585357
R83 ua[0].n40 ua[0].n0 0.0576429
R84 ua[0].n31 ua[0].n18 0.05675
R85 ua[0].n45 ua[0].n34 0.0564524
R86 ua[0].n35 ua[0].n1 0.0496071
R87 ua[0].n48 ua[0].n47 0.04425
R88 ua[0].n46 ua[0].n45 0.0385952
R89 ua[0].n54 ua[0].n0 0.0385952
R90 ua[0].n44 ua[0].n9 0.0371071
R91 ua[0].n44 ua[0].n43 0.0281786
R92 ua[0].n47 ua[0].n9 0.0210357
R93 ua[0].n37 ua[0].n35 0.0156786
R94 ua[0].n48 ua[0].n7 0.0138929
R95 ua[0].n24 ua[0].n10 0.0138929
R96 ua[0].n53 ua[0].n1 0.00853571
R97 ua[0].n31 ua[0].n30 0.00853571
R98 ua[0].n41 ua[0].n39 0.00675
R99 ua[0].n33 ua[0].n32 0.00570833
R100 ua[0].n40 ua[0].n34 0.00169048
R101 ua[0].n17 ua[0].n12 0.00139286
R102 VDPWR.n111 VDPWR.n107 9051.59
R103 VDPWR.n108 VDPWR.t36 666.939
R104 VDPWR.n108 VDPWR.t37 665
R105 VDPWR.t12 VDPWR.t10 638.889
R106 VDPWR VDPWR.t38 613.566
R107 VDPWR.n98 VDPWR.n97 585
R108 VDPWR.n97 VDPWR.n90 585
R109 VDPWR.n97 VDPWR.n96 585
R110 VDPWR.n97 VDPWR 585
R111 VDPWR.n86 VDPWR.n85 585
R112 VDPWR.n85 VDPWR.n84 585
R113 VDPWR.n85 VDPWR.n79 585
R114 VDPWR.n85 VDPWR 585
R115 VDPWR.n74 VDPWR.n73 585
R116 VDPWR.n73 VDPWR.n72 585
R117 VDPWR.n73 VDPWR.n67 585
R118 VDPWR.n73 VDPWR 585
R119 VDPWR.n62 VDPWR.n61 585
R120 VDPWR.n61 VDPWR.n54 585
R121 VDPWR.n61 VDPWR.n60 585
R122 VDPWR.n61 VDPWR 585
R123 VDPWR.n50 VDPWR.n49 585
R124 VDPWR.n49 VDPWR.n48 585
R125 VDPWR.n49 VDPWR.n43 585
R126 VDPWR.n49 VDPWR 585
R127 VDPWR.n38 VDPWR.n37 585
R128 VDPWR.n37 VDPWR.n36 585
R129 VDPWR.n37 VDPWR.n31 585
R130 VDPWR.n37 VDPWR 585
R131 VDPWR.n26 VDPWR.n25 585
R132 VDPWR.n25 VDPWR.n18 585
R133 VDPWR.n25 VDPWR.n24 585
R134 VDPWR.n25 VDPWR 585
R135 VDPWR.n14 VDPWR.n13 585
R136 VDPWR.n13 VDPWR.n12 585
R137 VDPWR.n13 VDPWR.n7 585
R138 VDPWR.n13 VDPWR 585
R139 VDPWR.n126 VDPWR.n125 585
R140 VDPWR.n126 VDPWR.n3 585
R141 VDPWR.n126 VDPWR.n2 585
R142 VDPWR VDPWR.n126 585
R143 VDPWR.t22 VDPWR.t24 551.054
R144 VDPWR.t20 VDPWR.t22 456.945
R145 VDPWR.t18 VDPWR.t20 456.945
R146 VDPWR.t16 VDPWR.t14 456.945
R147 VDPWR.t14 VDPWR.t12 456.945
R148 VDPWR.t10 VDPWR.t8 456.945
R149 VDPWR.t8 VDPWR.t6 456.945
R150 VDPWR.t6 VDPWR.t4 456.945
R151 VDPWR.t4 VDPWR.t2 456.945
R152 VDPWR.t2 VDPWR.t0 456.945
R153 VDPWR.t28 VDPWR.t30 420.943
R154 VDPWR.t24 VDPWR.t26 420.943
R155 VDPWR.t32 VDPWR.t34 411.762
R156 VDPWR.t26 VDPWR.n109 401.752
R157 VDPWR.n108 VDPWR.t32 393.435
R158 VDPWR.n112 VDPWR.n106 352.731
R159 VDPWR.n110 VDPWR.t16 229.862
R160 VDPWR.n110 VDPWR.t18 227.083
R161 VDPWR.n13 VDPWR.n6 197.698
R162 VDPWR.n126 VDPWR.n1 197.698
R163 VDPWR.n85 VDPWR.n78 197.698
R164 VDPWR.n73 VDPWR.n66 197.698
R165 VDPWR.n25 VDPWR.n19 197.698
R166 VDPWR.n97 VDPWR.n91 197.698
R167 VDPWR.n49 VDPWR.n42 197.698
R168 VDPWR.n37 VDPWR.n30 197.698
R169 VDPWR.n61 VDPWR.n55 197.698
R170 VDPWR.n118 VDPWR.t35 92.781
R171 VDPWR.n115 VDPWR.t23 92.2351
R172 VDPWR.n102 VDPWR.t11 92.2351
R173 VDPWR.n106 VDPWR 71.6216
R174 VDPWR.t30 VDPWR.n108 27.5089
R175 VDPWR.n99 VDPWR.n98 25.3691
R176 VDPWR.n87 VDPWR.n86 25.3691
R177 VDPWR.n75 VDPWR.n74 25.3691
R178 VDPWR.n63 VDPWR.n62 25.3691
R179 VDPWR.n51 VDPWR.n50 25.3691
R180 VDPWR.n39 VDPWR.n38 25.3691
R181 VDPWR.n27 VDPWR.n26 25.3691
R182 VDPWR.n15 VDPWR.n14 25.3691
R183 VDPWR.n125 VDPWR.n119 25.3691
R184 VDPWR.n107 VDPWR.n106 23.1471
R185 VDPWR.n109 VDPWR.t28 19.1924
R186 VDPWR.n55 VDPWR 18.8127
R187 VDPWR.n91 VDPWR 18.8127
R188 VDPWR VDPWR.n42 18.8127
R189 VDPWR VDPWR.n30 18.8127
R190 VDPWR VDPWR.n78 18.8127
R191 VDPWR VDPWR.n66 18.8127
R192 VDPWR.n19 VDPWR 18.8127
R193 VDPWR VDPWR.n6 18.8127
R194 VDPWR VDPWR.n1 18.8127
R195 VDPWR.n90 VDPWR.n89 16.5652
R196 VDPWR.n84 VDPWR.n77 16.5652
R197 VDPWR.n72 VDPWR.n65 16.5652
R198 VDPWR.n54 VDPWR.n53 16.5652
R199 VDPWR.n48 VDPWR.n41 16.5652
R200 VDPWR.n36 VDPWR.n29 16.5652
R201 VDPWR.n18 VDPWR.n17 16.5652
R202 VDPWR.n12 VDPWR.n5 16.5652
R203 VDPWR.n124 VDPWR.n3 16.5652
R204 VDPWR.n96 VDPWR.n92 15.0593
R205 VDPWR.n83 VDPWR.n79 15.0593
R206 VDPWR.n71 VDPWR.n67 15.0593
R207 VDPWR.n60 VDPWR.n56 15.0593
R208 VDPWR.n47 VDPWR.n43 15.0593
R209 VDPWR.n35 VDPWR.n31 15.0593
R210 VDPWR.n24 VDPWR.n20 15.0593
R211 VDPWR.n11 VDPWR.n7 15.0593
R212 VDPWR.n121 VDPWR.n2 15.0593
R213 VDPWR.n95 VDPWR 13.5534
R214 VDPWR.n80 VDPWR 13.5534
R215 VDPWR.n68 VDPWR 13.5534
R216 VDPWR.n59 VDPWR 13.5534
R217 VDPWR.n44 VDPWR 13.5534
R218 VDPWR.n32 VDPWR 13.5534
R219 VDPWR.n23 VDPWR 13.5534
R220 VDPWR.n8 VDPWR 13.5534
R221 VDPWR VDPWR.n0 13.5534
R222 VDPWR.n96 VDPWR.n95 12.0476
R223 VDPWR.n80 VDPWR.n79 12.0476
R224 VDPWR.n68 VDPWR.n67 12.0476
R225 VDPWR.n60 VDPWR.n59 12.0476
R226 VDPWR.n44 VDPWR.n43 12.0476
R227 VDPWR.n32 VDPWR.n31 12.0476
R228 VDPWR.n24 VDPWR.n23 12.0476
R229 VDPWR.n8 VDPWR.n7 12.0476
R230 VDPWR.n2 VDPWR.n0 12.0476
R231 VDPWR.n92 VDPWR.n90 10.5417
R232 VDPWR.n84 VDPWR.n83 10.5417
R233 VDPWR.n72 VDPWR.n71 10.5417
R234 VDPWR.n56 VDPWR.n54 10.5417
R235 VDPWR.n48 VDPWR.n47 10.5417
R236 VDPWR.n36 VDPWR.n35 10.5417
R237 VDPWR.n20 VDPWR.n18 10.5417
R238 VDPWR.n12 VDPWR.n11 10.5417
R239 VDPWR.n121 VDPWR.n3 10.5417
R240 VDPWR.n89 VDPWR.n88 9.3005
R241 VDPWR.n93 VDPWR.n92 9.3005
R242 VDPWR.n95 VDPWR.n94 9.3005
R243 VDPWR.n77 VDPWR.n76 9.3005
R244 VDPWR.n83 VDPWR.n82 9.3005
R245 VDPWR.n81 VDPWR.n80 9.3005
R246 VDPWR.n65 VDPWR.n64 9.3005
R247 VDPWR.n71 VDPWR.n70 9.3005
R248 VDPWR.n69 VDPWR.n68 9.3005
R249 VDPWR.n53 VDPWR.n52 9.3005
R250 VDPWR.n57 VDPWR.n56 9.3005
R251 VDPWR.n59 VDPWR.n58 9.3005
R252 VDPWR.n41 VDPWR.n40 9.3005
R253 VDPWR.n47 VDPWR.n46 9.3005
R254 VDPWR.n45 VDPWR.n44 9.3005
R255 VDPWR.n29 VDPWR.n28 9.3005
R256 VDPWR.n35 VDPWR.n34 9.3005
R257 VDPWR.n33 VDPWR.n32 9.3005
R258 VDPWR.n17 VDPWR.n16 9.3005
R259 VDPWR.n21 VDPWR.n20 9.3005
R260 VDPWR.n23 VDPWR.n22 9.3005
R261 VDPWR.n5 VDPWR.n4 9.3005
R262 VDPWR.n11 VDPWR.n10 9.3005
R263 VDPWR.n9 VDPWR.n8 9.3005
R264 VDPWR.n124 VDPWR.n123 9.3005
R265 VDPWR.n122 VDPWR.n121 9.3005
R266 VDPWR.n120 VDPWR.n0 9.3005
R267 VDPWR.n98 VDPWR.n89 9.03579
R268 VDPWR.n86 VDPWR.n77 9.03579
R269 VDPWR.n74 VDPWR.n65 9.03579
R270 VDPWR.n62 VDPWR.n53 9.03579
R271 VDPWR.n50 VDPWR.n41 9.03579
R272 VDPWR.n38 VDPWR.n29 9.03579
R273 VDPWR.n26 VDPWR.n17 9.03579
R274 VDPWR.n14 VDPWR.n5 9.03579
R275 VDPWR.n125 VDPWR.n124 9.03579
R276 VDPWR.n97 VDPWR.t1 5.7135
R277 VDPWR.n85 VDPWR.t5 5.7135
R278 VDPWR.n85 VDPWR.t3 5.7135
R279 VDPWR.n73 VDPWR.t9 5.7135
R280 VDPWR.n73 VDPWR.t7 5.7135
R281 VDPWR.n61 VDPWR.t13 5.7135
R282 VDPWR.n49 VDPWR.t17 5.7135
R283 VDPWR.n49 VDPWR.t15 5.7135
R284 VDPWR.n37 VDPWR.t21 5.7135
R285 VDPWR.n37 VDPWR.t19 5.7135
R286 VDPWR.n25 VDPWR.t25 5.7135
R287 VDPWR.n13 VDPWR.t29 5.7135
R288 VDPWR.n13 VDPWR.t27 5.7135
R289 VDPWR.n126 VDPWR.t33 5.7135
R290 VDPWR.n126 VDPWR.t31 5.7135
R291 VDPWR.n109 VDPWR.n107 4.5127
R292 VDPWR.n105 VDPWR 2.71026
R293 VDPWR.n9 VDPWR.n6 2.16295
R294 VDPWR.n120 VDPWR.n1 2.16295
R295 VDPWR.n81 VDPWR.n78 2.16293
R296 VDPWR.n69 VDPWR.n66 2.16293
R297 VDPWR.n22 VDPWR.n19 2.16293
R298 VDPWR.n94 VDPWR.n91 2.16292
R299 VDPWR.n33 VDPWR.n30 2.16292
R300 VDPWR.n45 VDPWR.n42 2.16292
R301 VDPWR.n58 VDPWR.n55 2.16292
R302 VDPWR.n100 VDPWR.n99 1.0348
R303 VDPWR.n112 VDPWR.n111 1.0005
R304 VDPWR.n111 VDPWR.n110 1.0005
R305 VDPWR.n102 VDPWR.n101 0.554667
R306 VDPWR.n118 VDPWR.n117 0.5505
R307 VDPWR.n117 VDPWR.n116 0.5505
R308 VDPWR.n115 VDPWR.n114 0.5505
R309 VDPWR.n104 VDPWR.n103 0.546333
R310 VDPWR.n101 VDPWR.n100 0.546333
R311 VDPWR.n100 VDPWR.n87 0.488969
R312 VDPWR.n101 VDPWR.n75 0.488969
R313 VDPWR.n103 VDPWR.n63 0.488969
R314 VDPWR.n104 VDPWR.n51 0.488969
R315 VDPWR.n114 VDPWR.n39 0.488969
R316 VDPWR.n116 VDPWR.n27 0.488969
R317 VDPWR.n117 VDPWR.n15 0.488969
R318 VDPWR.n119 VDPWR.n118 0.488969
R319 VDPWR.n114 VDPWR.n113 0.271333
R320 VDPWR.n105 VDPWR.n104 0.271333
R321 VDPWR.n99 VDPWR.n88 0.143564
R322 VDPWR.n87 VDPWR.n76 0.143564
R323 VDPWR.n75 VDPWR.n64 0.143564
R324 VDPWR.n63 VDPWR.n52 0.143564
R325 VDPWR.n51 VDPWR.n40 0.143564
R326 VDPWR.n39 VDPWR.n28 0.143564
R327 VDPWR.n27 VDPWR.n16 0.143564
R328 VDPWR.n15 VDPWR.n4 0.143564
R329 VDPWR.n123 VDPWR.n119 0.143564
R330 VDPWR.n93 VDPWR.n88 0.113
R331 VDPWR.n94 VDPWR.n93 0.113
R332 VDPWR.n82 VDPWR.n76 0.113
R333 VDPWR.n82 VDPWR.n81 0.113
R334 VDPWR.n70 VDPWR.n64 0.113
R335 VDPWR.n70 VDPWR.n69 0.113
R336 VDPWR.n57 VDPWR.n52 0.113
R337 VDPWR.n58 VDPWR.n57 0.113
R338 VDPWR.n46 VDPWR.n40 0.113
R339 VDPWR.n46 VDPWR.n45 0.113
R340 VDPWR.n34 VDPWR.n28 0.113
R341 VDPWR.n34 VDPWR.n33 0.113
R342 VDPWR.n21 VDPWR.n16 0.113
R343 VDPWR.n22 VDPWR.n21 0.113
R344 VDPWR.n10 VDPWR.n4 0.113
R345 VDPWR.n10 VDPWR.n9 0.113
R346 VDPWR.n123 VDPWR.n122 0.113
R347 VDPWR.n122 VDPWR.n120 0.113
R348 VDPWR.n116 VDPWR.n115 0.108833
R349 VDPWR.n103 VDPWR.n102 0.108833
R350 VDPWR.n113 VDPWR.n112 0.0272241
R351 VDPWR.n113 VDPWR.n105 0.00466667
R352 VGND.n792 VGND.n791 466973
R353 VGND.n0 VGND.t39 4.20981
R354 VGND.t32 VGND.n31 23023.1
R355 VGND.n1788 VGND.n1787 11130.5
R356 VGND.n1797 VGND.n201 10047
R357 VGND.n1980 VGND.t39 9048.66
R358 VGND.n1072 VGND.n1071 6762.67
R359 VGND.t41 VGND.n14 4531.44
R360 VGND.n204 VGND.n200 4438.73
R361 VGND.n790 VGND.n7 3709.19
R362 VGND.n1364 VGND.n1005 3242.67
R363 VGND.n1005 VGND.n356 3178.67
R364 VGND.n1364 VGND.n1006 3136
R365 VGND.n1072 VGND.n1006 3093.33
R366 VGND.n1980 VGND.t41 3008.46
R367 VGND.n498 VGND.n356 2752.62
R368 VGND.n1788 VGND.n200 2558.65
R369 VGND.n905 VGND.n498 2024.28
R370 VGND.n907 VGND.n905 1792
R371 VGND.n1980 VGND.t11 1690.65
R372 VGND.t10 VGND.t11 1573.48
R373 VGND.t9 VGND.t10 1573.48
R374 VGND.t8 VGND.t7 1573.48
R375 VGND.t7 VGND.t6 1573.48
R376 VGND.n1797 VGND.n200 1296.92
R377 VGND.t34 VGND.t8 1272.17
R378 VGND.n1660 VGND.n194 1170.95
R379 VGND.n818 VGND.n796 1007.63
R380 VGND.n818 VGND.n817 1007.63
R381 VGND.n817 VGND.n816 1007.63
R382 VGND.n816 VGND.n797 1007.63
R383 VGND.n797 VGND.n368 1007.63
R384 VGND.n806 VGND.n369 1007.63
R385 VGND.n806 VGND.n805 1007.63
R386 VGND.n805 VGND.n804 1007.63
R387 VGND.n804 VGND.n361 1007.63
R388 VGND.n1001 VGND.n361 1007.63
R389 VGND.n1370 VGND.n353 1007.63
R390 VGND.n1370 VGND.n1369 1007.63
R391 VGND.n1369 VGND.n1368 1007.63
R392 VGND.n1368 VGND.n354 1007.63
R393 VGND.n1361 VGND.n354 1007.63
R394 VGND.n1359 VGND.n1358 1007.63
R395 VGND.n1358 VGND.n1357 1007.63
R396 VGND.n1357 VGND.n1009 1007.63
R397 VGND.n1351 VGND.n1009 1007.63
R398 VGND.n1351 VGND.n1350 1007.63
R399 VGND.t12 VGND.n1980 908.487
R400 VGND.n557 VGND.n517 872.247
R401 VGND.n524 VGND.n517 872.247
R402 VGND.n550 VGND.n524 872.247
R403 VGND.n550 VGND.n549 872.247
R404 VGND.n549 VGND.n362 872.247
R405 VGND.n542 VGND.n363 872.247
R406 VGND.n542 VGND.n541 872.247
R407 VGND.n541 VGND.n540 872.247
R408 VGND.n540 VGND.n532 872.247
R409 VGND.n532 VGND.n364 872.247
R410 VGND.n773 VGND.n772 872.247
R411 VGND.n772 VGND.n771 872.247
R412 VGND.n771 VGND.n578 872.247
R413 VGND.n765 VGND.n578 872.247
R414 VGND.n765 VGND.n365 872.247
R415 VGND.n591 VGND.n366 872.247
R416 VGND.n758 VGND.n591 872.247
R417 VGND.n758 VGND.n757 872.247
R418 VGND.n757 VGND.n756 872.247
R419 VGND.n756 VGND.n367 872.247
R420 VGND.n1472 VGND.n290 868.422
R421 VGND.n1478 VGND.n290 868.422
R422 VGND.n1479 VGND.n1478 868.422
R423 VGND.n1479 VGND.n286 868.422
R424 VGND.n1485 VGND.n286 868.422
R425 VGND.n1491 VGND.n282 868.422
R426 VGND.n1492 VGND.n1491 868.422
R427 VGND.n1492 VGND.n278 868.422
R428 VGND.n1498 VGND.n278 868.422
R429 VGND.n1499 VGND.n1498 868.422
R430 VGND.n1059 VGND.n1054 814.58
R431 VGND.n1187 VGND.n1186 772.768
R432 VGND.t34 VGND.n369 682.952
R433 VGND.n1359 VGND.t32 682.952
R434 VGND.n1442 VGND.n327 629.801
R435 VGND.n1442 VGND.n326 602.707
R436 VGND.n1203 VGND.n1058 595.312
R437 VGND.t34 VGND.n363 591.189
R438 VGND.t34 VGND.n366 591.189
R439 VGND.n1780 VGND.n221 589.514
R440 VGND.n282 VGND.t32 588.596
R441 VGND.n653 VGND.n652 585
R442 VGND.n651 VGND.n620 585
R443 VGND.n647 VGND.n646 585
R444 VGND.n642 VGND.n623 585
R445 VGND.n639 VGND.n638 585
R446 VGND.n634 VGND.n627 585
R447 VGND.n631 VGND.n630 585
R448 VGND.n599 VGND.n598 585
R449 VGND.n714 VGND.n597 585
R450 VGND.n594 VGND.n294 585
R451 VGND.n653 VGND.n359 585
R452 VGND.n651 VGND.n650 585
R453 VGND.n648 VGND.n647 585
R454 VGND.n642 VGND.n641 585
R455 VGND.n640 VGND.n639 585
R456 VGND.n634 VGND.n633 585
R457 VGND.n632 VGND.n631 585
R458 VGND.n599 VGND.n595 585
R459 VGND.n715 VGND.n714 585
R460 VGND.n717 VGND.n594 585
R461 VGND.n570 VGND.n569 585
R462 VGND.n855 VGND.n570 585
R463 VGND.n858 VGND.n857 585
R464 VGND.n857 VGND.n856 585
R465 VGND.n859 VGND.n567 585
R466 VGND.n567 VGND.n566 585
R467 VGND.n861 VGND.n860 585
R468 VGND.n862 VGND.n861 585
R469 VGND.n568 VGND.n564 585
R470 VGND.n863 VGND.n564 585
R471 VGND.n866 VGND.n865 585
R472 VGND.n865 VGND.n864 585
R473 VGND.n867 VGND.n563 585
R474 VGND.n565 VGND.n563 585
R475 VGND.n869 VGND.n868 585
R476 VGND.n870 VGND.n869 585
R477 VGND.n562 VGND.n561 585
R478 VGND.n871 VGND.n562 585
R479 VGND.n874 VGND.n873 585
R480 VGND.n873 VGND.n872 585
R481 VGND.n875 VGND.n560 585
R482 VGND.n560 VGND.n559 585
R483 VGND.n877 VGND.n876 585
R484 VGND.n878 VGND.n877 585
R485 VGND.n1346 VGND.n1345 585
R486 VGND.n1337 VGND.n1020 585
R487 VGND.n1328 VGND.n1019 585
R488 VGND.n1332 VGND.n1330 585
R489 VGND.n1327 VGND.n1326 585
R490 VGND.n1323 VGND.n1322 585
R491 VGND.n1321 VGND.n1320 585
R492 VGND.n1317 VGND.n1316 585
R493 VGND.n1315 VGND.n1314 585
R494 VGND.n1311 VGND.n1310 585
R495 VGND.n1536 VGND.n1535 585
R496 VGND.n1509 VGND.n271 585
R497 VGND.n1513 VGND.n1508 585
R498 VGND.n1518 VGND.n1517 585
R499 VGND.n1515 VGND.n250 585
R500 VGND.n1514 VGND.n249 585
R501 VGND.n1605 VGND.n1604 585
R502 VGND.n1615 VGND.n1614 585
R503 VGND.n1612 VGND.n238 585
R504 VGND.n1611 VGND.n237 585
R505 VGND.n1497 VGND.n273 585
R506 VGND.n1498 VGND.n1497 585
R507 VGND.n1496 VGND.n1495 585
R508 VGND.n1496 VGND.n278 585
R509 VGND.n280 VGND.n279 585
R510 VGND.n1492 VGND.n279 585
R511 VGND.n1490 VGND.n1489 585
R512 VGND.n1491 VGND.n1490 585
R513 VGND.n1488 VGND.n283 585
R514 VGND.n283 VGND.n282 585
R515 VGND.n1484 VGND.n284 585
R516 VGND.n1485 VGND.n1484 585
R517 VGND.n1483 VGND.n1482 585
R518 VGND.n1483 VGND.n286 585
R519 VGND.n1481 VGND.n287 585
R520 VGND.n1479 VGND.n287 585
R521 VGND.n1477 VGND.n288 585
R522 VGND.n1478 VGND.n1477 585
R523 VGND.n1476 VGND.n1475 585
R524 VGND.n1476 VGND.n290 585
R525 VGND.n292 VGND.n291 585
R526 VGND.n1472 VGND.n291 585
R527 VGND.n1473 VGND.n292 585
R528 VGND.n1473 VGND.n1472 585
R529 VGND.n1475 VGND.n1474 585
R530 VGND.n1474 VGND.n290 585
R531 VGND.n289 VGND.n288 585
R532 VGND.n1478 VGND.n289 585
R533 VGND.n1481 VGND.n1480 585
R534 VGND.n1480 VGND.n1479 585
R535 VGND.n1482 VGND.n285 585
R536 VGND.n286 VGND.n285 585
R537 VGND.n1486 VGND.n284 585
R538 VGND.n1486 VGND.n1485 585
R539 VGND.n1488 VGND.n1487 585
R540 VGND.n1487 VGND.n282 585
R541 VGND.n1489 VGND.n281 585
R542 VGND.n1491 VGND.n281 585
R543 VGND.n1493 VGND.n280 585
R544 VGND.n1493 VGND.n1492 585
R545 VGND.n1495 VGND.n1494 585
R546 VGND.n1494 VGND.n278 585
R547 VGND.n276 VGND.n273 585
R548 VGND.n1498 VGND.n276 585
R549 VGND.n1384 VGND.n1383 585
R550 VGND.n1382 VGND.n348 585
R551 VGND.n1382 VGND.n1381 585
R552 VGND.n1470 VGND.n295 585
R553 VGND.n1470 VGND.n1469 585
R554 VGND.n753 VGND.n293 585
R555 VGND.n1381 VGND.n293 585
R556 VGND.n748 VGND.n367 585
R557 VGND.n756 VGND.n593 585
R558 VGND.n747 VGND.n347 585
R559 VGND.n756 VGND.n755 585
R560 VGND.n719 VGND.n367 585
R561 VGND.n718 VGND.n295 585
R562 VGND.n718 VGND.n314 585
R563 VGND.n853 VGND.n852 585
R564 VGND.n854 VGND.n853 585
R565 VGND.n592 VGND.n589 585
R566 VGND.n757 VGND.n592 585
R567 VGND.n760 VGND.n588 585
R568 VGND.n758 VGND.n588 585
R569 VGND.n761 VGND.n587 585
R570 VGND.n591 VGND.n587 585
R571 VGND.n762 VGND.n586 585
R572 VGND.n586 VGND.n366 585
R573 VGND.n585 VGND.n583 585
R574 VGND.n585 VGND.n365 585
R575 VGND.n767 VGND.n582 585
R576 VGND.n765 VGND.n582 585
R577 VGND.n768 VGND.n581 585
R578 VGND.n581 VGND.n578 585
R579 VGND.n769 VGND.n577 585
R580 VGND.n771 VGND.n577 585
R581 VGND.n580 VGND.n576 585
R582 VGND.n772 VGND.n576 585
R583 VGND.n574 VGND.n572 585
R584 VGND.n773 VGND.n572 585
R585 VGND.n852 VGND.n851 585
R586 VGND.n851 VGND.n850 585
R587 VGND.n774 VGND.n574 585
R588 VGND.n774 VGND.n773 585
R589 VGND.n580 VGND.n575 585
R590 VGND.n772 VGND.n575 585
R591 VGND.n770 VGND.n769 585
R592 VGND.n771 VGND.n770 585
R593 VGND.n768 VGND.n579 585
R594 VGND.n579 VGND.n578 585
R595 VGND.n767 VGND.n766 585
R596 VGND.n766 VGND.n765 585
R597 VGND.n764 VGND.n583 585
R598 VGND.n764 VGND.n365 585
R599 VGND.n763 VGND.n762 585
R600 VGND.n763 VGND.n366 585
R601 VGND.n761 VGND.n584 585
R602 VGND.n591 VGND.n584 585
R603 VGND.n760 VGND.n759 585
R604 VGND.n759 VGND.n758 585
R605 VGND.n590 VGND.n589 585
R606 VGND.n757 VGND.n590 585
R607 VGND.n787 VGND.n786 585
R608 VGND.n826 VGND.n787 585
R609 VGND.n829 VGND.n828 585
R610 VGND.n828 VGND.n827 585
R611 VGND.n830 VGND.n784 585
R612 VGND.n784 VGND.n783 585
R613 VGND.n832 VGND.n831 585
R614 VGND.n833 VGND.n832 585
R615 VGND.n785 VGND.n782 585
R616 VGND.n834 VGND.n782 585
R617 VGND.n837 VGND.n836 585
R618 VGND.n836 VGND.n835 585
R619 VGND.n838 VGND.n781 585
R620 VGND.n781 VGND.n780 585
R621 VGND.n840 VGND.n839 585
R622 VGND.n841 VGND.n840 585
R623 VGND.n779 VGND.n778 585
R624 VGND.n842 VGND.n779 585
R625 VGND.n845 VGND.n844 585
R626 VGND.n844 VGND.n843 585
R627 VGND.n846 VGND.n777 585
R628 VGND.n777 VGND.n776 585
R629 VGND.n848 VGND.n847 585
R630 VGND.n849 VGND.n848 585
R631 VGND.n824 VGND.n823 585
R632 VGND.n825 VGND.n824 585
R633 VGND.n803 VGND.n802 585
R634 VGND.n804 VGND.n803 585
R635 VGND.n800 VGND.n799 585
R636 VGND.n805 VGND.n800 585
R637 VGND.n808 VGND.n807 585
R638 VGND.n807 VGND.n806 585
R639 VGND.n809 VGND.n798 585
R640 VGND.n798 VGND.n369 585
R641 VGND.n811 VGND.n810 585
R642 VGND.n811 VGND.n368 585
R643 VGND.n813 VGND.n812 585
R644 VGND.n812 VGND.n797 585
R645 VGND.n815 VGND.n814 585
R646 VGND.n816 VGND.n815 585
R647 VGND.n795 VGND.n794 585
R648 VGND.n817 VGND.n795 585
R649 VGND.n820 VGND.n819 585
R650 VGND.n819 VGND.n818 585
R651 VGND.n821 VGND.n793 585
R652 VGND.n796 VGND.n793 585
R653 VGND.n350 VGND.n296 585
R654 VGND.n1469 VGND.n296 585
R655 VGND.n1375 VGND.n1374 585
R656 VGND.n1381 VGND.n1375 585
R657 VGND.n1002 VGND.n358 585
R658 VGND.n1002 VGND.n1001 585
R659 VGND.n801 VGND.n360 585
R660 VGND.n361 VGND.n360 585
R661 VGND.n1004 VGND.n1003 585
R662 VGND.n1003 VGND.n314 585
R663 VGND.n1353 VGND.n1352 585
R664 VGND.n1352 VGND.n1351 585
R665 VGND.n1354 VGND.n1010 585
R666 VGND.n1010 VGND.n1009 585
R667 VGND.n1356 VGND.n1355 585
R668 VGND.n1357 VGND.n1356 585
R669 VGND.n1011 VGND.n1008 585
R670 VGND.n1358 VGND.n1008 585
R671 VGND.n1360 VGND.n1007 585
R672 VGND.n1360 VGND.n1359 585
R673 VGND.n1363 VGND.n1362 585
R674 VGND.n1362 VGND.n1361 585
R675 VGND.n1365 VGND.n355 585
R676 VGND.n355 VGND.n354 585
R677 VGND.n1367 VGND.n1366 585
R678 VGND.n1368 VGND.n1367 585
R679 VGND.n352 VGND.n351 585
R680 VGND.n1369 VGND.n352 585
R681 VGND.n1372 VGND.n1371 585
R682 VGND.n1371 VGND.n1370 585
R683 VGND.n1373 VGND.n349 585
R684 VGND.n353 VGND.n349 585
R685 VGND.n1349 VGND.n1012 585
R686 VGND.n1350 VGND.n1349 585
R687 VGND.n1348 VGND.n1347 585
R688 VGND.n1348 VGND.n13 585
R689 VGND.n1078 VGND.n1077 585
R690 VGND.n1345 VGND.n1015 585
R691 VGND.n1337 VGND.n1336 585
R692 VGND.n1334 VGND.n1019 585
R693 VGND.n1333 VGND.n1332 585
R694 VGND.n1326 VGND.n1325 585
R695 VGND.n1324 VGND.n1323 585
R696 VGND.n1320 VGND.n1319 585
R697 VGND.n1318 VGND.n1317 585
R698 VGND.n1314 VGND.n1313 585
R699 VGND.n1312 VGND.n1311 585
R700 VGND.n1079 VGND.n23 585
R701 VGND.n1979 VGND.n23 585
R702 VGND.n1204 VGND.n1203 585
R703 VGND.n1100 VGND.n1068 585
R704 VGND.n1099 VGND.n1098 585
R705 VGND.n1096 VGND.n1069 585
R706 VGND.n1094 VGND.n1093 585
R707 VGND.n1092 VGND.n1070 585
R708 VGND.n1091 VGND.n1090 585
R709 VGND.n1088 VGND.n1087 585
R710 VGND.n1086 VGND.n1085 585
R711 VGND.n1084 VGND.n1074 585
R712 VGND.n1082 VGND.n1081 585
R713 VGND.n1080 VGND.n1075 585
R714 VGND.n1075 VGND.n15 585
R715 VGND.n1185 VGND.n1184 585
R716 VGND.n1185 VGND.n15 585
R717 VGND.n1187 VGND.n1066 585
R718 VGND.n1189 VGND.n1188 585
R719 VGND.n1191 VGND.n1065 585
R720 VGND.n1193 VGND.n1192 585
R721 VGND.n1195 VGND.n1194 585
R722 VGND.n1197 VGND.n1196 585
R723 VGND.n1198 VGND.n1062 585
R724 VGND.n1200 VGND.n1199 585
R725 VGND.n1202 VGND.n1060 585
R726 VGND.n1207 VGND.n1206 585
R727 VGND.n1206 VGND.n1205 585
R728 VGND.n1232 VGND.n274 585
R729 VGND.n1230 VGND.n1229 585
R730 VGND.n1034 VGND.n1033 585
R731 VGND.n1224 VGND.n1039 585
R732 VGND.n1223 VGND.n1040 585
R733 VGND.n1222 VGND.n1042 585
R734 VGND.n1046 VGND.n1043 585
R735 VGND.n1217 VGND.n1048 585
R736 VGND.n1216 VGND.n1049 585
R737 VGND.n1215 VGND.n1051 585
R738 VGND.n1055 VGND.n1052 585
R739 VGND.n1210 VGND.n1057 585
R740 VGND.n1234 VGND.n275 585
R741 VGND.n1501 VGND.n24 585
R742 VGND.n1979 VGND.n24 585
R743 VGND.n1505 VGND.n272 585
R744 VGND.n1499 VGND.n272 585
R745 VGND.n1533 VGND.n1532 585
R746 VGND.n1501 VGND.n1500 585
R747 VGND.n1500 VGND.n1499 585
R748 VGND.n277 VGND.n275 585
R749 VGND.n277 VGND.n13 585
R750 VGND.n1504 VGND.n22 585
R751 VGND.n1979 VGND.n22 585
R752 VGND.n1621 VGND.n1620 585
R753 VGND.n241 VGND.n236 585
R754 VGND.n247 VGND.n242 585
R755 VGND.n1603 VGND.n1602 585
R756 VGND.n1600 VGND.n1599 585
R757 VGND.n1510 VGND.n248 585
R758 VGND.n1519 VGND.n1507 585
R759 VGND.n1525 VGND.n1524 585
R760 VGND.n1527 VGND.n269 585
R761 VGND.n1528 VGND.n270 585
R762 VGND.n1531 VGND.n1530 585
R763 VGND.n1211 VGND.n1210 585
R764 VGND.n1213 VGND.n1052 585
R765 VGND.n1215 VGND.n1214 585
R766 VGND.n1216 VGND.n1045 585