* NGSPICE file created from BGR_lay.ext - technology: sky130A

.subckt BGR_lay VIN VSS VREF EN
X0 VSS.t25 VSS.t27 RPTAT_lay_0.B sky130_fd_pr__pnp_05v5_W3p40L3p40
**devattr s=462400,2720 d=46053255,55725
X1 VSS.t29 VSS.t32 RPTAT_lay_0.B sky130_fd_pr__pnp_05v5_W3p40L3p40
**devattr s=462400,2720 d=46053255,55725
X2 VREF.t5 M1.G0 VIN.t28 VIN.t27 sky130_fd_pr__pfet_01v8_lvt ad=0.725 pd=5.29 as=1.45 ps=10.58 w=5 l=3
X3 M1.G0 ME1.S ME2.S VSS.t9 sky130_fd_pr__nfet_01v8 ad=0.145 pd=1.58 as=0.145 ps=1.58 w=0.5 l=0.15
X4 VSS.t40 RCTAT_lay_0.R6.R1 VSS.t39 sky130_fd_pr__res_xhigh_po_0p35 l=4.08
X5 VSS.t29 VSS.t28 RPTAT_lay_0.B sky130_fd_pr__pnp_05v5_W3p40L3p40
**devattr s=462400,2720 d=46053255,55725
X6 VSS.t34 VSS.t36 Q1.Emitter sky130_fd_pr__pnp_05v5_W3p40L3p40
**devattr s=462400,2720 d=46053255,55725
X7 VIN.t22 M1.G0 M1.G0 VIN.t21 sky130_fd_pr__pfet_01v8_lvt ad=0.725 pd=5.29 as=0.725 ps=5.29 w=5 l=3
X8 VREF.t1 M1.G0 VIN.t36 VIN.t35 sky130_fd_pr__pfet_01v8_lvt ad=0.725 pd=5.29 as=0.725 ps=5.29 w=5 l=3
X9 inv_0.Y EN.t1 VSS.t20 VSS.t19 sky130_fd_pr__nfet_01v8 ad=0.145 pd=1.58 as=0.145 ps=1.58 w=0.5 l=0.5
X10 RL_lay_0.R3.R1 RL_lay_0.R4.R2 VSS.t17 sky130_fd_pr__res_xhigh_po_0p35 l=4.18
X11 VSS.t31 VSS.t30 RPTAT_lay_0.B sky130_fd_pr__pnp_05v5_W3p40L3p40
**devattr s=462400,2720 d=46053255,55725
X12 Q1.Emitter M1.S1 M1.S1 VSS.t5 sky130_fd_pr__nfet_01v8_lvt ad=1.45 pd=10.58 as=0.725 ps=5.29 w=5 l=3
X13 M1.G0 M1.G0 VIN.t16 VIN.t15 sky130_fd_pr__pfet_01v8_lvt ad=0.725 pd=5.29 as=1.45 ps=10.58 w=5 l=3
X14 RL_lay_0.R3.R1 RL_lay_0.R2.R2 VSS.t16 sky130_fd_pr__res_xhigh_po_0p35 l=4.18
X15 RCTAT_lay_0.R5.R1 RCTAT_lay_0.R4.R2 VSS.t18 sky130_fd_pr__res_xhigh_po_0p35 l=4.08
X16 VIN.t10 M1.G0 M1.S1 VIN.t9 sky130_fd_pr__pfet_01v8_lvt ad=0.725 pd=5.29 as=0.725 ps=5.29 w=5 l=3
X17 M1.S1 M1.G0 VIN.t12 VIN.t11 sky130_fd_pr__pfet_01v8_lvt ad=0.725 pd=5.29 as=0.725 ps=5.29 w=5 l=3
X18 RCTAT_lay_0.A M1.S1 M1.G0 VSS.t6 sky130_fd_pr__nfet_01v8_lvt ad=0.725 pd=5.29 as=0.725 ps=5.29 w=5 l=3
X19 VSS.t15 RL_lay_0.R4.R2 VSS.t14 sky130_fd_pr__res_xhigh_po_0p35 l=4.18
X20 ME2.S EN.t0 M1.S1 VSS.t21 sky130_fd_pr__nfet_01v8 ad=0.29 pd=2.58 as=0.29 ps=2.58 w=1 l=0.3
X21 VSS.t34 VSS.t33 RPTAT_lay_0.B sky130_fd_pr__pnp_05v5_W3p40L3p40
**devattr s=462400,2720 d=46053255,55725
X22 ME1.S ME1.S VIN.t2 VIN.t1 sky130_fd_pr__pfet_01v8 ad=0.29 pd=2.58 as=0.29 ps=2.58 w=1 l=2
X23 VSS.t34 VSS.t35 RPTAT_lay_0.B sky130_fd_pr__pnp_05v5_W3p40L3p40
**devattr s=462400,2720 d=46053255,55725
X24 RCTAT_lay_0.A RPTAT_lay_0.B VSS.t13 sky130_fd_pr__res_xhigh_po_0p35 l=3.2
X25 VSS.t25 VSS.t26 RPTAT_lay_0.B sky130_fd_pr__pnp_05v5_W3p40L3p40
**devattr s=462400,2720 d=46053255,55725
X26 RCTAT_lay_0.R3.R1 RCTAT_lay_0.R2.R2 VSS.t22 sky130_fd_pr__res_xhigh_po_0p35 l=4.08
X27 VIN.t30 M1.G0 VREF.t4 VIN.t29 sky130_fd_pr__pfet_01v8_lvt ad=0.725 pd=5.29 as=0.725 ps=5.29 w=5 l=3
X28 M1.G0 M1.G0 VIN.t24 VIN.t23 sky130_fd_pr__pfet_01v8_lvt ad=0.725 pd=5.29 as=0.725 ps=5.29 w=5 l=3
X29 VIN.t38 M1.G0 VREF.t6 VIN.t37 sky130_fd_pr__pfet_01v8_lvt ad=1.45 pd=10.58 as=0.725 ps=5.29 w=5 l=3
X30 M1.G0 M1.G0 VIN.t20 VIN.t19 sky130_fd_pr__pfet_01v8_lvt ad=0.725 pd=5.29 as=0.725 ps=5.29 w=5 l=3
X31 VREF.t2 M1.G0 VIN.t32 VIN.t31 sky130_fd_pr__pfet_01v8_lvt ad=0.725 pd=5.29 as=0.725 ps=5.29 w=5 l=3
X32 Q1.Emitter M1.S1 M1.S1 VSS.t3 sky130_fd_pr__nfet_01v8_lvt ad=0.725 pd=5.29 as=0.725 ps=5.29 w=5 l=3
X33 M1.S1 M1.S1 Q1.Emitter VSS.t4 sky130_fd_pr__nfet_01v8_lvt ad=0.725 pd=5.29 as=0.725 ps=5.29 w=5 l=3
X34 MSU1.S M1.S1 VSS.t8 VSS.t7 sky130_fd_pr__nfet_01v8 ad=0.29 pd=2.58 as=0.29 ps=2.58 w=1 l=2
X35 M1.S1 M1.G0 VIN.t4 VIN.t3 sky130_fd_pr__pfet_01v8_lvt ad=0.725 pd=5.29 as=1.45 ps=10.58 w=5 l=3
X36 VIN.t6 M1.G0 M1.S1 VIN.t5 sky130_fd_pr__pfet_01v8_lvt ad=0.725 pd=5.29 as=0.725 ps=5.29 w=5 l=3
X37 M1.G0 M1.S1 RCTAT_lay_0.A VSS.t6 sky130_fd_pr__nfet_01v8_lvt ad=0.725 pd=5.29 as=1.45 ps=10.58 w=5 l=3
X38 M1.G0 M1.S1 RCTAT_lay_0.A VSS.t6 sky130_fd_pr__nfet_01v8_lvt ad=0.725 pd=5.29 as=0.725 ps=5.29 w=5 l=3
X39 RCTAT_lay_0.A RCTAT_lay_0.R2.R2 VSS.t37 sky130_fd_pr__res_xhigh_po_0p35 l=4.08
X40 M1.S1 M1.G0 VIN.t8 VIN.t7 sky130_fd_pr__pfet_01v8_lvt ad=0.725 pd=5.29 as=0.725 ps=5.29 w=5 l=3
X41 RCTAT_lay_0.R5.R1 RCTAT_lay_0.R6.R1 VSS.t38 sky130_fd_pr__res_xhigh_po_0p35 l=4.08
X42 VIN.t26 M1.G0 M1.G0 VIN.t25 sky130_fd_pr__pfet_01v8_lvt ad=1.45 pd=10.58 as=0.725 ps=5.29 w=5 l=3
X43 VREF.t0 RL_lay_0.R2.R2 VSS.t12 sky130_fd_pr__res_xhigh_po_0p35 l=4.18
X44 VIN.t18 M1.G0 M1.G0 VIN.t17 sky130_fd_pr__pfet_01v8_lvt ad=0.725 pd=5.29 as=0.725 ps=5.29 w=5 l=3
X45 VIN.t34 M1.G0 VREF.t3 VIN.t33 sky130_fd_pr__pfet_01v8_lvt ad=0.725 pd=5.29 as=0.725 ps=5.29 w=5 l=3
X46 M1.S1 inv_0.Y VSS.t11 VSS.t10 sky130_fd_pr__nfet_01v8 ad=0.145 pd=1.58 as=0.145 ps=1.58 w=0.5 l=0.5
X47 M1.S1 M1.S1 Q1.Emitter VSS.t0 sky130_fd_pr__nfet_01v8_lvt ad=0.725 pd=5.29 as=1.45 ps=10.58 w=5 l=3
X48 RCTAT_lay_0.R3.R1 RCTAT_lay_0.R4.R2 VSS.t23 sky130_fd_pr__res_xhigh_po_0p35 l=4.08
X49 VIN.t14 M1.G0 M1.S1 VIN.t13 sky130_fd_pr__pfet_01v8_lvt ad=1.45 pd=10.58 as=0.725 ps=5.29 w=5 l=3
X50 Q1.Emitter M1.S1 M1.S1 VSS.t1 sky130_fd_pr__nfet_01v8_lvt ad=0.725 pd=5.29 as=0.725 ps=5.29 w=5 l=3
X51 VSS.t25 VSS.t24 RPTAT_lay_0.B sky130_fd_pr__pnp_05v5_W3p40L3p40
**devattr s=462400,2720 d=46053255,55725
X52 RCTAT_lay_0.A M1.S1 M1.G0 VSS.t6 sky130_fd_pr__nfet_01v8_lvt ad=1.45 pd=10.58 as=0.725 ps=5.29 w=5 l=3
X53 inv_0.Y EN.t4 VIN.t40 VIN.t39 sky130_fd_pr__pfet_01v8 ad=0.58 pd=4.58 as=0.58 ps=4.58 w=2 l=0.5
X54 M1.S1 M1.S1 Q1.Emitter VSS.t2 sky130_fd_pr__nfet_01v8_lvt ad=0.725 pd=5.29 as=0.725 ps=5.29 w=5 l=3
X55 RCTAT_lay_0.A M1.S1 M1.G0 VSS.t6 sky130_fd_pr__nfet_01v8_lvt ad=0.725 pd=5.29 as=0.725 ps=5.29 w=5 l=3
X56 M1.G0 M1.S1 RCTAT_lay_0.A VSS.t6 sky130_fd_pr__nfet_01v8_lvt ad=0.725 pd=5.29 as=0.725 ps=5.29 w=5 l=3
X57 ME1.S EN.t3 VIN.t42 VIN.t41 sky130_fd_pr__pfet_01v8 ad=0.348 pd=2.98 as=0.348 ps=2.98 w=1.2 l=1
X58 M1.G0 EN.t2 VIN.t44 VIN.t43 sky130_fd_pr__pfet_01v8 ad=0.348 pd=2.98 as=0.348 ps=2.98 w=1.2 l=1
X59 MSU1.S MSU1.S ME1.S VIN.t0 sky130_fd_pr__pfet_01v8 ad=0.29 pd=2.58 as=0.29 ps=2.58 w=1 l=2
R0 EN EN.t0 274.108
R1 EN EN.t4 248.4
R2 EN EN.t3 180.921
R3 EN EN.t2 180.921
R4 EN EN.t1 176.101
R5 EN.n2 EN 12.7231
R6 EN.n0 EN 9.5505
R7 EN.n0 EN 9.47907
R8 EN EN.n3 8.19824
R9 EN.n1 EN 6.86925
R10 EN.n2 EN 4.65505
R11 EN.n1 EN 4.55362
R12 EN.n3 EN.n1 2.64609
R13 EN.n3 EN.n2 1.5005
R14 EN EN.n0 0.383312
R15 VREF VREF.n4 83.5719
R16 VREF VREF.n6 83.5719
R17 VREF VREF.n0 83.5719
R18 VREF.n1 VREF.t0 40.8142
R19 VREF.n1 VREF 33.275
R20 VREF.n4 VREF.t6 5.7135
R21 VREF.n4 VREF.t1 5.7135
R22 VREF.n6 VREF.t4 5.7135
R23 VREF.n6 VREF.t5 5.7135
R24 VREF.n0 VREF.t3 5.7135
R25 VREF.n0 VREF.t2 5.7135
R26 VREF.n7 VREF 2.39455
R27 VREF VREF.n1 1.67389
R28 VREF.n7 VREF.n5 1.3274
R29 VREF VREF.n7 1.07012
R30 VREF.n5 VREF 1.02618
R31 VREF.n3 VREF.n2 0.949859
R32 VREF.n5 VREF.n3 0.549129
R33 VREF.n3 VREF 0.38077
R34 VREF.n2 VREF 0.0255
R35 VREF.n2 VREF 0.00883333
R36 VIN.n22 VIN 29798.8
R37 VIN.n28 VIN.n21 3810.59
R38 VIN.n14 VIN.n12 3068.63
R39 VIN.n24 VIN.n21 2505.88
R40 VIN.n24 VIN.n23 2470.59
R41 VIN.n28 VIN 1789.41
R42 VIN.n23 VIN 1694.12
R43 VIN VIN.n26 1310.21
R44 VIN.n23 VIN.n22 1129.69
R45 VIN.n22 VIN 1047.7
R46 VIN.n31 VIN.n8 1034.5
R47 VIN.n25 VIN.n24 1004
R48 VIN.n26 VIN 973.47
R49 VIN.n25 VIN 797.648
R50 VIN VIN.n25 797.648
R51 VIN.t15 VIN.t13 638.889
R52 VIN VIN.t2 613.566
R53 VIN VIN.t44 608.804
R54 VIN VIN.t42 608.804
R55 VIN.n27 VIN.t25 515.487
R56 VIN.n14 VIN.n8 496.325
R57 VIN.n26 VIN.n21 470.937
R58 VIN.t25 VIN.t23 456.945
R59 VIN.t23 VIN.t21 456.945
R60 VIN.t21 VIN.t19 456.945
R61 VIN.t19 VIN.t17 456.945
R62 VIN.t17 VIN.t15 456.945
R63 VIN.t13 VIN.t11 456.945
R64 VIN.t11 VIN.t9 456.945
R65 VIN.t9 VIN.t7 456.945
R66 VIN.t7 VIN.t5 456.945
R67 VIN.t5 VIN.t3 456.945
R68 VIN.t35 VIN.t37 405.45
R69 VIN.n29 VIN.n20 319.815
R70 VIN.n31 VIN.n30 280.774
R71 VIN.n19 VIN.n12 259.389
R72 VIN.t39 VIN.t41 217.619
R73 VIN VIN.t40 209.284
R74 VIN.t29 VIN.t43 192.381
R75 VIN.t33 VIN.t1 183.81
R76 VIN.n20 VIN.n19 170.166
R77 VIN.t31 VIN.t0 170
R78 VIN.t0 VIN.t33 143.333
R79 VIN.t1 VIN.t35 129.524
R80 VIN.t43 VIN.t31 120.953
R81 VIN.n30 VIN.n29 117.46
R82 VIN.n20 VIN.n11 109.382
R83 VIN.n19 VIN.n18 103.468
R84 VIN.n3 VIN.t38 91.406
R85 VIN.n38 VIN.t14 90.8602
R86 VIN.n6 VIN.t26 90.8602
R87 VIN VIN.t4 89.2849
R88 VIN VIN.t16 89.2849
R89 VIN VIN.t28 89.2849
R90 VIN.n15 VIN.n14 84.778
R91 VIN VIN.n35 83.5719
R92 VIN VIN.n34 83.5719
R93 VIN VIN.n33 83.5719
R94 VIN VIN.n0 83.5719
R95 VIN VIN.n1 83.5719
R96 VIN VIN.n2 83.5719
R97 VIN.n32 VIN.n31 75.2371
R98 VIN.n16 VIN.n15 61.9487
R99 VIN.n28 VIN.n27 60.6267
R100 VIN.n16 VIN.n12 59.4678
R101 VIN.t41 VIN.t29 51.4291
R102 VIN.n29 VIN.n28 46.2505
R103 VIN.t27 VIN.t39 44.2862
R104 VIN.n18 VIN.n11 40.1093
R105 VIN.n13 VIN.n8 39.9483
R106 VIN.n17 VIN.n16 31.9491
R107 VIN.n27 VIN.t27 17.1844
R108 VIN.n11 VIN.n10 14.8254
R109 VIN.n13 VIN 14.6705
R110 VIN.n30 VIN.n10 13.8129
R111 VIN.n17 VIN 13.0886
R112 VIN.n18 VIN.n17 9.95606
R113 VIN.n15 VIN.n13 8.11358
R114 VIN.n35 VIN.t8 5.7135
R115 VIN.n35 VIN.t6 5.7135
R116 VIN.n34 VIN.t12 5.7135
R117 VIN.n34 VIN.t10 5.7135
R118 VIN.n33 VIN.t20 5.7135
R119 VIN.n33 VIN.t18 5.7135
R120 VIN.n0 VIN.t24 5.7135
R121 VIN.n0 VIN.t22 5.7135
R122 VIN.n1 VIN.t32 5.7135
R123 VIN.n1 VIN.t30 5.7135
R124 VIN.n2 VIN.t36 5.7135
R125 VIN.n2 VIN.t34 5.7135
R126 VIN.n9 VIN 3.88387
R127 VIN VIN.n41 2.31087
R128 VIN.n36 VIN 2.12156
R129 VIN.n36 VIN 1.57572
R130 VIN.n37 VIN 1.57572
R131 VIN.n39 VIN 1.57572
R132 VIN.n40 VIN 1.57572
R133 VIN.n7 VIN 1.57572
R134 VIN.n5 VIN 1.57572
R135 VIN.n4 VIN 1.57572
R136 VIN.n3 VIN 1.57572
R137 VIN.n10 VIN.n9 1.5505
R138 VIN.n38 VIN.n37 0.554667
R139 VIN.n4 VIN.n3 0.5505
R140 VIN.n5 VIN.n4 0.5505
R141 VIN.n7 VIN.n6 0.5505
R142 VIN.n40 VIN.n39 0.546333
R143 VIN.n37 VIN.n36 0.546333
R144 VIN.n32 VIN.n7 0.271333
R145 VIN.n41 VIN.n40 0.271333
R146 VIN.n6 VIN.n5 0.108833
R147 VIN.n39 VIN.n38 0.108833
R148 VIN.n9 VIN 0.0593235
R149 VIN.n41 VIN.n32 0.00466667
R150 VSS.n841 VSS.n386 2.02835e+06
R151 VSS.n859 VSS.n858 16802.4
R152 VSS.n841 VSS.n840 12945.7
R153 VSS.t12 VSS.n841 12843.9
R154 VSS.n2003 VSS.n40 11148.9
R155 VSS.n2018 VSS.n6 10498.9
R156 VSS.n1539 VSS.n1538 6643.2
R157 VSS.n857 VSS 6118.59
R158 VSS.n1323 VSS.n192 5630.05
R159 VSS.n1323 VSS.n1314 5630.05
R160 VSS.n1846 VSS.n5 4858.37
R161 VSS.n847 VSS.n846 3282.89
R162 VSS.n1542 VSS.n1541 3242.67
R163 VSS.n1542 VSS.n1118 3178.67
R164 VSS.n1541 VSS.n1540 3136
R165 VSS.n1540 VSS.n1539 3093.33
R166 VSS.n1118 VSS.n1117 2752.62
R167 VSS.n2003 VSS.n5 2360.72
R168 VSS.n857 VSS 2039.53
R169 VSS.n1117 VSS.n381 2024.28
R170 VSS.n783 VSS.n381 1825.1
R171 VSS.n1533 VSS.n1135 1221.1
R172 VSS.n1113 VSS.n1112 1007.63
R173 VSS.n1112 VSS.n1111 1007.63
R174 VSS.n1111 VSS.n387 1007.63
R175 VSS.n1105 VSS.n387 1007.63
R176 VSS.n1105 VSS.n1104 1007.63
R177 VSS.n396 VSS.n389 1007.63
R178 VSS.n397 VSS.n396 1007.63
R179 VSS.n397 VSS.n390 1007.63
R180 VSS.n403 VSS.n390 1007.63
R181 VSS.n404 VSS.n403 1007.63
R182 VSS.n1150 VSS.n194 1007.63
R183 VSS.n1150 VSS.n1143 1007.63
R184 VSS.n1156 VSS.n1143 1007.63
R185 VSS.n1157 VSS.n1156 1007.63
R186 VSS.n1518 VSS.n1157 1007.63
R187 VSS.n1524 VSS.n1141 1007.63
R188 VSS.n1525 VSS.n1524 1007.63
R189 VSS.n1526 VSS.n1525 1007.63
R190 VSS.n1526 VSS.n1136 1007.63
R191 VSS.n1532 VSS.n1136 1007.63
R192 VSS.n1405 VSS.n1135 968.808
R193 VSS.n1475 VSS.n1158 908.258
R194 VSS.n1475 VSS.n1474 908.258
R195 VSS.n1474 VSS.n1473 908.258
R196 VSS.n1473 VSS.n1176 908.258
R197 VSS.n1176 VSS.n1159 908.258
R198 VSS.n1203 VSS.n1160 908.258
R199 VSS.n1223 VSS.n1203 908.258
R200 VSS.n1407 VSS.n1223 908.258
R201 VSS.n1407 VSS.n1406 908.258
R202 VSS.n1406 VSS.n1405 908.258
R203 VSS.n1785 VSS.n213 876.106
R204 VSS.n1756 VSS.n213 876.106
R205 VSS.n1778 VSS.n1756 876.106
R206 VSS.n1778 VSS.n1777 876.106
R207 VSS.n1777 VSS.n112 876.106
R208 VSS.n1770 VSS.n121 876.106
R209 VSS.n1770 VSS.n1769 876.106
R210 VSS.n1769 VSS.n1768 876.106
R211 VSS.n1768 VSS.n111 876.106
R212 VSS.n1967 VSS.n111 876.106
R213 VSS.n984 VSS.n949 872.247
R214 VSS.n984 VSS.n983 872.247
R215 VSS.n983 VSS.n982 872.247
R216 VSS.n982 VSS.n955 872.247
R217 VSS.n955 VSS.n405 872.247
R218 VSS.n974 VSS.n406 872.247
R219 VSS.n974 VSS.n973 872.247
R220 VSS.n973 VSS.n972 872.247
R221 VSS.n972 VSS.n969 872.247
R222 VSS.n969 VSS.n410 872.247
R223 VSS.n1058 VSS.n454 872.247
R224 VSS.n1059 VSS.n1058 872.247
R225 VSS.n1059 VSS.n450 872.247
R226 VSS.n1065 VSS.n450 872.247
R227 VSS.n1065 VSS.n411 872.247
R228 VSS.n1072 VSS.n412 872.247
R229 VSS.n1073 VSS.n1072 872.247
R230 VSS.n1073 VSS.n442 872.247
R231 VSS.n1080 VSS.n442 872.247
R232 VSS.n1080 VSS.n413 872.247
R233 VSS.n2018 VSS.n5 759.029
R234 VSS.t25 VSS.n389 682.952
R235 VSS.t34 VSS.n1141 682.952
R236 VSS.t34 VSS.n1 136.083
R237 VSS.n195 VSS.n113 642.553
R238 VSS.n1355 VSS.n195 638.298
R239 VSS.t34 VSS.n122 212.635
R240 VSS.n1087 VSS.n1086 629.801
R241 VSS.n1086 VSS.n438 602.707
R242 VSS.n12 VSS.n10 600.524
R243 VSS.t34 VSS.n121 593.806
R244 VSS.t25 VSS.n406 591.189
R245 VSS.t25 VSS.n412 591.189
R246 VSS.n857 VSS.n856 585
R247 VSS.n858 VSS.n857 585
R248 VSS.n1030 VSS.n944 585
R249 VSS.n944 VSS.n943 585
R250 VSS.n1032 VSS.n1031 585
R251 VSS.n1033 VSS.n1032 585
R252 VSS.n942 VSS.n941 585
R253 VSS.n1034 VSS.n942 585
R254 VSS.n1037 VSS.n1036 585
R255 VSS.n1036 VSS.n1035 585
R256 VSS.n1038 VSS.n940 585
R257 VSS.n940 VSS.n939 585
R258 VSS.n1040 VSS.n1039 585
R259 VSS.n1041 VSS.n1040 585
R260 VSS.n938 VSS.n937 585
R261 VSS.n1042 VSS.n938 585
R262 VSS.n1045 VSS.n1044 585
R263 VSS.n1044 VSS.n1043 585
R264 VSS.n1046 VSS.n935 585
R265 VSS.n935 VSS.n934 585
R266 VSS.n1048 VSS.n1047 585
R267 VSS.n1049 VSS.n1048 585
R268 VSS.n936 VSS.n458 585
R269 VSS.n1050 VSS.n458 585
R270 VSS.n1052 VSS.n459 585
R271 VSS.n1052 VSS.n1051 585
R272 VSS.n989 VSS.n945 585
R273 VSS.n990 VSS.n989 585
R274 VSS.n967 VSS.n314 585
R275 VSS.n972 VSS.n967 585
R276 VSS.n966 VSS.n965 585
R277 VSS.n973 VSS.n966 585
R278 VSS.n964 VSS.n962 585
R279 VSS.n974 VSS.n964 585
R280 VSS.n963 VSS.n960 585
R281 VSS.n963 VSS.n406 585
R282 VSS.n978 VSS.n959 585
R283 VSS.n959 VSS.n405 585
R284 VSS.n979 VSS.n958 585
R285 VSS.n958 VSS.n955 585
R286 VSS.n980 VSS.n954 585
R287 VSS.n982 VSS.n954 585
R288 VSS.n957 VSS.n953 585
R289 VSS.n983 VSS.n953 585
R290 VSS.n951 VSS.n950 585
R291 VSS.n984 VSS.n950 585
R292 VSS.n988 VSS.n987 585
R293 VSS.n988 VSS.n949 585
R294 VSS.n992 VSS.n945 585
R295 VSS.n993 VSS.n992 585
R296 VSS.n987 VSS.n986 585
R297 VSS.n986 VSS.n949 585
R298 VSS.n985 VSS.n951 585
R299 VSS.n985 VSS.n984 585
R300 VSS.n957 VSS.n952 585
R301 VSS.n983 VSS.n952 585
R302 VSS.n981 VSS.n980 585
R303 VSS.n982 VSS.n981 585
R304 VSS.n979 VSS.n956 585
R305 VSS.n956 VSS.n955 585
R306 VSS.n978 VSS.n977 585
R307 VSS.n977 VSS.n405 585
R308 VSS.n976 VSS.n960 585
R309 VSS.n976 VSS.n406 585
R310 VSS.n975 VSS.n962 585
R311 VSS.n975 VSS.n974 585
R312 VSS.n965 VSS.n961 585
R313 VSS.n973 VSS.n961 585
R314 VSS.n971 VSS.n314 585
R315 VSS.n972 VSS.n971 585
R316 VSS.n803 VSS.n410 585
R317 VSS.n969 VSS.n968 585
R318 VSS.n970 VSS.n969 585
R319 VSS.n410 VSS.n409 585
R320 VSS.n187 VSS.n182 585
R321 VSS.n181 VSS.n172 585
R322 VSS.n1810 VSS.n1809 585
R323 VSS.n1812 VSS.n171 585
R324 VSS.n1814 VSS.n1813 585
R325 VSS.n163 VSS.n137 585
R326 VSS.n1824 VSS.n1823 585
R327 VSS.n1826 VSS.n162 585
R328 VSS.n1828 VSS.n1827 585
R329 VSS.n1743 VSS.n1742 585
R330 VSS.n1225 VSS.n1224 585
R331 VSS.n1406 VSS.n1225 585
R332 VSS.n1409 VSS.n1200 585
R333 VSS.n1407 VSS.n1200 585
R334 VSS.n1222 VSS.n1199 585
R335 VSS.n1223 VSS.n1222 585
R336 VSS.n1221 VSS.n1220 585
R337 VSS.n1221 VSS.n1203 585
R338 VSS.n1217 VSS.n1204 585
R339 VSS.n1204 VSS.n1160 585
R340 VSS.n1211 VSS.n1210 585
R341 VSS.n1210 VSS.n1159 585
R342 VSS.n1209 VSS.n1180 585
R343 VSS.n1209 VSS.n1176 585
R344 VSS.n1471 VSS.n1175 585
R345 VSS.n1473 VSS.n1175 585
R346 VSS.n1178 VSS.n1174 585
R347 VSS.n1474 VSS.n1174 585
R348 VSS.n1477 VSS.n1171 585
R349 VSS.n1475 VSS.n1171 585
R350 VSS.n1224 VSS.n1202 585
R351 VSS.n1406 VSS.n1202 585
R352 VSS.n1409 VSS.n1408 585
R353 VSS.n1408 VSS.n1407 585
R354 VSS.n1201 VSS.n1199 585
R355 VSS.n1223 VSS.n1201 585
R356 VSS.n1220 VSS.n1219 585
R357 VSS.n1219 VSS.n1203 585
R358 VSS.n1218 VSS.n1217 585
R359 VSS.n1218 VSS.n1160 585
R360 VSS.n1211 VSS.n1207 585
R361 VSS.n1207 VSS.n1159 585
R362 VSS.n1180 VSS.n1177 585
R363 VSS.n1177 VSS.n1176 585
R364 VSS.n1472 VSS.n1471 585
R365 VSS.n1473 VSS.n1472 585
R366 VSS.n1178 VSS.n1173 585
R367 VSS.n1474 VSS.n1173 585
R368 VSS.n1477 VSS.n1476 585
R369 VSS.n1476 VSS.n1475 585
R370 VSS.n1514 VSS.n188 585
R371 VSS.n1513 VSS.n1512 585
R372 VSS.n1510 VSS.n1483 585
R373 VSS.n1508 VSS.n1507 585
R374 VSS.n1504 VSS.n1484 585
R375 VSS.n1501 VSS.n1500 585
R376 VSS.n1498 VSS.n1485 585
R377 VSS.n1496 VSS.n1495 585
R378 VSS.n1492 VSS.n1486 585
R379 VSS.n1489 VSS.n1488 585
R380 VSS.n313 VSS.n311 585
R381 VSS.n311 VSS.n118 585
R382 VSS.n317 VSS.n313 585
R383 VSS.n1490 VSS.n1489 585
R384 VSS.n1492 VSS.n1491 585
R385 VSS.n1495 VSS.n1494 585
R386 VSS.n1493 VSS.n1485 585
R387 VSS.n1502 VSS.n1501 585
R388 VSS.n1504 VSS.n1503 585
R389 VSS.n1507 VSS.n1506 585
R390 VSS.n1505 VSS.n1483 585
R391 VSS.n1513 VSS.n1482 585
R392 VSS.n1515 VSS.n1514 585
R393 VSS.n1628 VSS.n1627 585
R394 VSS.n820 VSS.n819 585
R395 VSS.n818 VSS.n816 585
R396 VSS.n801 VSS.n793 585
R397 VSS.n829 VSS.n828 585
R398 VSS.n831 VSS.n792 585
R399 VSS.n833 VSS.n832 585
R400 VSS.n790 VSS.n290 585
R401 VSS.n789 VSS.n289 585
R402 VSS.n285 VSS.n281 585
R403 VSS.n1696 VSS.n1695 585
R404 VSS.n1626 VSS.n1625 585
R405 VSS.n1626 VSS.n198 585
R406 VSS.n1546 VSS.n350 585
R407 VSS.n367 VSS.n349 585
R408 VSS.n372 VSS.n368 585
R409 VSS.n364 VSS.n363 585
R410 VSS.n360 VSS.n355 585
R411 VSS.n353 VSS.n328 585
R412 VSS.n1609 VSS.n327 585
R413 VSS.n323 VSS.n319 585
R414 VSS.n1615 VSS.n1614 585
R415 VSS.n1617 VSS.n318 585
R416 VSS.n1618 VSS.n315 585
R417 VSS.n1618 VSS.n280 585
R418 VSS.n1621 VSS.n1620 585
R419 VSS.n1620 VSS.n198 585
R420 VSS.n804 VSS.n309 585
R421 VSS.n806 VSS.n308 585
R422 VSS.n823 VSS.n822 585
R423 VSS.n825 VSS.n802 585
R424 VSS.n827 VSS.n826 585
R425 VSS.n799 VSS.n798 585
R426 VSS.n797 VSS.n787 585
R427 VSS.n786 VSS.n288 585
R428 VSS.n1690 VSS.n1689 585
R429 VSS.n1692 VSS.n286 585
R430 VSS.n1694 VSS.n1693 585
R431 VSS.n1546 VSS.n1545 585
R432 VSS.n374 VSS.n349 585
R433 VSS.n373 VSS.n372 585
R434 VSS.n363 VSS.n362 585
R435 VSS.n361 VSS.n360 585
R436 VSS.n328 VSS.n324 585
R437 VSS.n1610 VSS.n1609 585
R438 VSS.n1612 VSS.n323 585
R439 VSS.n1614 VSS.n1613 585
R440 VSS.n407 VSS.n318 585
R441 VSS.n408 VSS.n315 585
R442 VSS.n408 VSS.n287 585
R443 VSS.n436 VSS.n423 585
R444 VSS.n1101 VSS.n1100 585
R445 VSS.n1094 VSS.n422 585
R446 VSS.n573 VSS.n572 585
R447 VSS.n581 VSS.n580 585
R448 VSS.n583 VSS.n582 585
R449 VSS.n564 VSS.n563 585
R450 VSS.n562 VSS.n561 585
R451 VSS.n595 VSS.n594 585
R452 VSS.n597 VSS.n596 585
R453 VSS.n1089 VSS.n425 585
R454 VSS.n1090 VSS.n424 585
R455 VSS.n1093 VSS.n1092 585
R456 VSS.n574 VSS.n429 585
R457 VSS.n571 VSS.n568 585
R458 VSS.n585 VSS.n584 585
R459 VSS.n588 VSS.n587 585
R460 VSS.n566 VSS.n491 585
R461 VSS.n490 VSS.n487 585
R462 VSS.n599 VSS.n598 585
R463 VSS.n672 VSS.n663 585
R464 VSS.n732 VSS.n731 585
R465 VSS.n734 VSS.n661 585
R466 VSS.n736 VSS.n735 585
R467 VSS.n658 VSS.n650 585
R468 VSS.n746 VSS.n745 585
R469 VSS.n748 VSS.n649 585
R470 VSS.n749 VSS.n623 585
R471 VSS.n751 VSS.n622 585
R472 VSS.n753 VSS.n752 585
R473 VSS.n727 VSS.n726 585
R474 VSS.n730 VSS.n729 585
R475 VSS.n671 VSS.n670 585
R476 VSS.n659 VSS.n657 585
R477 VSS.n741 VSS.n740 585
R478 VSS.n744 VSS.n743 585
R479 VSS.n656 VSS.n655 585
R480 VSS.n647 VSS.n621 585
R481 VSS.n762 VSS.n761 585
R482 VSS.n764 VSS.n620 585
R483 VSS.n1763 VSS.n58 585
R484 VSS.n1763 VSS.n111 585
R485 VSS.n1766 VSS.n1764 585
R486 VSS.n1768 VSS.n1764 585
R487 VSS.n1765 VSS.n1762 585
R488 VSS.n1769 VSS.n1762 585
R489 VSS.n1761 VSS.n1760 585
R490 VSS.n1770 VSS.n1761 585
R491 VSS.n1758 VSS.n1757 585
R492 VSS.n1757 VSS.n121 585
R493 VSS.n1775 VSS.n1774 585
R494 VSS.n1775 VSS.n112 585
R495 VSS.n1776 VSS.n1754 585
R496 VSS.n1777 VSS.n1776 585
R497 VSS.n1780 VSS.n1753 585
R498 VSS.n1778 VSS.n1753 585
R499 VSS.n1781 VSS.n1752 585
R500 VSS.n1756 VSS.n1752 585
R501 VSS.n1782 VSS.n211 585
R502 VSS.n213 VSS.n211 585
R503 VSS.n1786 VSS.n212 585
R504 VSS.n1786 VSS.n1785 585
R505 VSS.n210 VSS.n208 585
R506 VSS.n210 VSS.n122 585
R507 VSS.n1788 VSS.n1787 585
R508 VSS.n1787 VSS.n196 585
R509 VSS.n1790 VSS.n1789 585
R510 VSS.n724 VSS.n207 585
R511 VSS.n1740 VSS.n1739 585
R512 VSS.n1741 VSS.n215 585
R513 VSS.n1741 VSS.n120 585
R514 VSS.n1728 VSS.n206 585
R515 VSS.n1731 VSS.n1730 585
R516 VSS.n1726 VSS.n1725 585
R517 VSS.n1724 VSS.n1723 585
R518 VSS.n1716 VSS.n274 585
R519 VSS.n1718 VSS.n1717 585
R520 VSS.n1709 VSS.n275 585
R521 VSS.n1711 VSS.n1710 585
R522 VSS.n1702 VSS.n276 585
R523 VSS.n1704 VSS.n1703 585
R524 VSS.n431 VSS.n277 585
R525 VSS.n1701 VSS.n1700 585
R526 VSS.n1706 VSS.n1705 585
R527 VSS.n1708 VSS.n1707 585
R528 VSS.n1713 VSS.n1712 585
R529 VSS.n1715 VSS.n1714 585
R530 VSS.n1720 VSS.n1719 585
R531 VSS.n1722 VSS.n1721 585
R532 VSS.n273 VSS.n272 585
R533 VSS.n1733 VSS.n1732 585
R534 VSS.n1729 VSS.n271 585
R535 VSS.n1727 VSS.n266 585
R536 VSS.n435 VSS.n433 585
R537 VSS.n435 VSS.n434 585
R538 VSS.n1698 VSS.n279 585
R539 VSS.n432 VSS.n278 585
R540 VSS.n278 VSS.n198 585
R541 VSS.n1078 VSS.n439 585
R542 VSS.n1078 VSS.n413 585
R543 VSS.n1079 VSS.n441 585
R544 VSS.n1080 VSS.n1079 585
R545 VSS.n1081 VSS.n441 585
R546 VSS.n1081 VSS.n1080 585
R547 VSS.n1082 VSS.n439 585
R548 VSS.n1082 VSS.n413 585
R549 VSS.n1084 VSS.n1083 585
R550 VSS.n456 VSS.n455 585
R551 VSS.n931 VSS.n455 585
R552 VSS.n1077 VSS.n1076 585
R553 VSS.n1077 VSS.n442 585
R554 VSS.n1075 VSS.n443 585
R555 VSS.n1073 VSS.n443 585
R556 VSS.n1071 VSS.n444 585
R557 VSS.n1072 VSS.n1071 585
R558 VSS.n1070 VSS.n1069 585
R559 VSS.n1070 VSS.n412 585
R560 VSS.n447 VSS.n446 585
R561 VSS.n446 VSS.n411 585
R562 VSS.n1064 VSS.n449 585
R563 VSS.n1065 VSS.n1064 585
R564 VSS.n1063 VSS.n1062 585
R565 VSS.n1063 VSS.n450 585
R566 VSS.n1061 VSS.n451 585
R567 VSS.n1059 VSS.n451 585
R568 VSS.n1057 VSS.n452 585
R569 VSS.n1058 VSS.n1057 585
R570 VSS.n1056 VSS.n1055 585
R571 VSS.n1056 VSS.n454 585
R572 VSS.n457 VSS.n456 585
R573 VSS.n933 VSS.n457 585
R574 VSS.n1055 VSS.n1054 585
R575 VSS.n1054 VSS.n454 585
R576 VSS.n453 VSS.n452 585
R577 VSS.n1058 VSS.n453 585
R578 VSS.n1061 VSS.n1060 585
R579 VSS.n1060 VSS.n1059 585
R580 VSS.n1062 VSS.n448 585
R581 VSS.n450 VSS.n448 585
R582 VSS.n1066 VSS.n449 585
R583 VSS.n1066 VSS.n1065 585
R584 VSS.n1067 VSS.n447 585
R585 VSS.n1067 VSS.n411 585
R586 VSS.n1069 VSS.n1068 585
R587 VSS.n1068 VSS.n412 585
R588 VSS.n445 VSS.n444 585
R589 VSS.n1072 VSS.n445 585
R590 VSS.n1075 VSS.n1074 585
R591 VSS.n1074 VSS.n1073 585
R592 VSS.n1076 VSS.n440 585
R593 VSS.n442 VSS.n440 585
R594 VSS.n929 VSS.n928 585
R595 VSS.n930 VSS.n929 585
R596 VSS.n926 VSS.n461 585
R597 VSS.n461 VSS.n460 585
R598 VSS.n925 VSS.n924 585
R599 VSS.n924 VSS.n923 585
R600 VSS.n463 VSS.n462 585
R601 VSS.n922 VSS.n463 585
R602 VSS.n920 VSS.n919 585
R603 VSS.n921 VSS.n920 585
R604 VSS.n918 VSS.n464 585
R605 VSS.n914 VSS.n464 585
R606 VSS.n917 VSS.n916 585
R607 VSS.n916 VSS.n915 585
R608 VSS.n466 VSS.n465 585
R609 VSS.n913 VSS.n466 585
R610 VSS.n911 VSS.n910 585
R611 VSS.n912 VSS.n911 585
R612 VSS.n909 VSS.n468 585
R613 VSS.n468 VSS.n467 585
R614 VSS.n907 VSS.n906 585
R615 VSS.n906 VSS.n905 585
R616 VSS.n904 VSS.n469 585
R617 VSS.n904 VSS.n414 585
R618 VSS.n1005 VSS.n1004 585
R619 VSS.n1004 VSS.n1003 585
R620 VSS.n1007 VSS.n1006 585
R621 VSS.n1008 VSS.n1007 585
R622 VSS.n1001 VSS.n1000 585
R623 VSS.n1009 VSS.n1001 585
R624 VSS.n1012 VSS.n1011 585
R625 VSS.n1011 VSS.n1010 585
R626 VSS.n1013 VSS.n999 585
R627 VSS.n999 VSS.n998 585
R628 VSS.n1015 VSS.n1014 585
R629 VSS.n1016 VSS.n1015 585
R630 VSS.n996 VSS.n995 585
R631 VSS.n1017 VSS.n996 585
R632 VSS.n1020 VSS.n1019 585
R633 VSS.n1019 VSS.n1018 585
R634 VSS.n1021 VSS.n994 585
R635 VSS.n997 VSS.n994 585
R636 VSS.n1023 VSS.n1022 585
R637 VSS.n1024 VSS.n1023 585
R638 VSS.n948 VSS.n946 585
R639 VSS.n1025 VSS.n948 585
R640 VSS.n1028 VSS.n1027 585
R641 VSS.n1027 VSS.n1026 585
R642 VSS.n384 VSS.n382 585
R643 VSS.n1002 VSS.n384 585
R644 VSS.n400 VSS.n391 585
R645 VSS.n391 VSS.n390 585
R646 VSS.n399 VSS.n398 585
R647 VSS.n398 VSS.n397 585
R648 VSS.n395 VSS.n392 585
R649 VSS.n396 VSS.n395 585
R650 VSS.n394 VSS.n393 585
R651 VSS.n394 VSS.n389 585
R652 VSS.n388 VSS.n380 585
R653 VSS.n1104 VSS.n388 585
R654 VSS.n1106 VSS.n379 585
R655 VSS.n1106 VSS.n1105 585
R656 VSS.n1108 VSS.n1107 585
R657 VSS.n1107 VSS.n387 585
R658 VSS.n1110 VSS.n1109 585
R659 VSS.n1111 VSS.n1110 585
R660 VSS.n385 VSS.n383 585
R661 VSS.n1112 VSS.n385 585
R662 VSS.n1115 VSS.n1114 585
R663 VSS.n1114 VSS.n1113 585
R664 VSS.n1146 VSS.n378 585
R665 VSS.n1146 VSS.n280 585
R666 VSS.n1148 VSS.n1147 585
R667 VSS.n1148 VSS.n198 585
R668 VSS.n377 VSS.n376 585
R669 VSS.n404 VSS.n376 585
R670 VSS.n402 VSS.n401 585
R671 VSS.n403 VSS.n402 585
R672 VSS.n1544 VSS.n1543 585
R673 VSS.n1544 VSS.n287 585
R674 VSS.n1529 VSS.n1137 585
R675 VSS.n1137 VSS.n1136 585
R676 VSS.n1528 VSS.n1527 585
R677 VSS.n1527 VSS.n1526 585
R678 VSS.n1140 VSS.n1139 585
R679 VSS.n1525 VSS.n1140 585
R680 VSS.n1523 VSS.n1522 585
R681 VSS.n1524 VSS.n1523 585
R682 VSS.n1521 VSS.n1520 585
R683 VSS.n1520 VSS.n1141 585
R684 VSS.n1519 VSS.n1120 585
R685 VSS.n1519 VSS.n1518 585
R686 VSS.n1142 VSS.n1119 585
R687 VSS.n1157 VSS.n1142 585
R688 VSS.n1155 VSS.n1154 585
R689 VSS.n1156 VSS.n1155 585
R690 VSS.n1153 VSS.n1144 585
R691 VSS.n1144 VSS.n1143 585
R692 VSS.n1152 VSS.n1151 585
R693 VSS.n1151 VSS.n1150 585
R694 VSS.n1149 VSS.n1145 585
R695 VSS.n1149 VSS.n194 585
R696 VSS.n1404 VSS.n1123 585
R697 VSS.n1405 VSS.n1404 585
R698 VSS.n1403 VSS.n1402 585
R699 VSS.n1403 VSS.n1135 585
R700 VSS.n1531 VSS.n1530 585
R701 VSS.n1532 VSS.n1531 585
R702 VSS.n1138 VSS.n1122 585
R703 VSS.n1405 VSS.n1138 585
R704 VSS.n1384 VSS.n1383 585
R705 VSS.n1386 VSS.n1230 585
R706 VSS.n1388 VSS.n1387 585
R707 VSS.n1389 VSS.n1229 585
R708 VSS.n1391 VSS.n1390 585
R709 VSS.n1393 VSS.n1125 585
R710 VSS.n1394 VSS.n1124 585
R711 VSS.n1396 VSS.n1228 585
R712 VSS.n1397 VSS.n1227 585
R713 VSS.n1400 VSS.n1399 585
R714 VSS.n1401 VSS.n1226 585
R715 VSS.n1226 VSS.n1134 585
R716 VSS.n1377 VSS.n1376 585
R717 VSS.n1377 VSS.n1132 585
R718 VSS.n1134 VSS.n1132 585
R719 VSS.n1535 VSS.n1534 585
R720 VSS.n1133 VSS.n1131 585
R721 VSS.n1357 VSS.n1356 585
R722 VSS.n1359 VSS.n1358 585
R723 VSS.n1361 VSS.n1360 585
R724 VSS.n1363 VSS.n1362 585
R725 VSS.n1365 VSS.n1364 585
R726 VSS.n1367 VSS.n1366 585
R727 VSS.n1369 VSS.n1368 585
R728 VSS.n1371 VSS.n1370 585
R729 VSS.n1373 VSS.n1372 585
R730 VSS.n1375 VSS.n1374 585
R731 VSS.n1328 VSS.n1327 585
R732 VSS.n1330 VSS.n1329 585
R733 VSS.n1335 VSS.n1331 585
R734 VSS.n1338 VSS.n1337 585
R735 VSS.n1336 VSS.n1324 585
R736 VSS.n1344 VSS.n1343 585
R737 VSS.n1346 VSS.n1345 585
R738 VSS.n1322 VSS.n1321 585
R739 VSS.n1353 VSS.n1352 585
R740 VSS.n1320 VSS.n1311 585
R741 VSS.n1381 VSS.n1312 585
R742 VSS.n1479 VSS.n1169 585
R743 VSS.n1169 VSS.n1158 585
R744 VSS.n1480 VSS.n1161 585
R745 VSS.n1517 VSS.n1161 585
R746 VSS.n1796 VSS.n1795 585
R747 VSS.n1796 VSS.n118 585
R748 VSS.n1798 VSS.n1797 585
R749 VSS.n1797 VSS.n120 585
R750 VSS.n1481 VSS.n1480 585
R751 VSS.n1479 VSS.n1167 585
R752 VSS.n1167 VSS.n1158 585
R753 VSS.n1794 VSS.n1793 585
R754 VSS.n1378 VSS.n1377 585
R755 VSS.n1381 VSS.n1380 585
R756 VSS.n1313 VSS.n1311 585
R757 VSS.n1352 VSS.n1351 585
R758 VSS.n1349 VSS.n1322 585
R759 VSS.n1347 VSS.n1346 585
R760 VSS.n1343 VSS.n1342 585
R761 VSS.n1340 VSS.n1324 585
R762 VSS.n1339 VSS.n1338 585
R763 VSS.n1335 VSS.n1334 585
R764 VSS.n1333 VSS.n1329 585
R765 VSS.n1328 VSS.n193 585
R766 VSS.n191 VSS.n185 585
R767 VSS.n184 VSS.n180 585
R768 VSS.n1805 VSS.n1804 585
R769 VSS.n1808 VSS.n1807 585
R770 VSS.n179 VSS.n178 585
R771 VSS.n167 VSS.n166 585
R772 VSS.n1817 VSS.n1816 585
R773 VSS.n1819 VSS.n136 585
R774 VSS.n1821 VSS.n1820 585
R775 VSS.n1746 VSS.n159 585
R776 VSS.n1747 VSS.n158 585
R777 VSS.n1749 VSS.n1745 585
R778 VSS.n1738 VSS.n214 585
R779 VSS.n214 VSS.n119 585
R780 VSS.n1784 VSS.n212 585
R781 VSS.n1785 VSS.n1784 585
R782 VSS.n1783 VSS.n1782 585
R783 VSS.n1783 VSS.n213 585
R784 VSS.n1781 VSS.n1751 585
R785 VSS.n1756 VSS.n1751 585
R786 VSS.n1780 VSS.n1779 585
R787 VSS.n1779 VSS.n1778 585
R788 VSS.n1755 VSS.n1754 585
R789 VSS.n1777 VSS.n1755 585
R790 VSS.n1774 VSS.n1773 585
R791 VSS.n1773 VSS.n112 585
R792 VSS.n1772 VSS.n1758 585
R793 VSS.n1772 VSS.n121 585
R794 VSS.n1771 VSS.n1760 585
R795 VSS.n1771 VSS.n1770 585
R796 VSS.n1765 VSS.n1759 585
R797 VSS.n1769 VSS.n1759 585
R798 VSS.n1767 VSS.n1766 585
R799 VSS.n1768 VSS.n1767 585
R800 VSS.n110 VSS.n58 585
R801 VSS.n111 VSS.n110 585
R802 VSS.n116 VSS.n109 585
R803 VSS.n117 VSS.n116 585
R804 VSS.n10 VSS.n8 585
R805 VSS.n2016 VSS.n2015 585
R806 VSS.n2017 VSS.n2016 585
R807 VSS.n1848 VSS.n9 585
R808 VSS.n9 VSS.n7 585
R809 VSS.n1851 VSS.n1847 585
R810 VSS.n1856 VSS.n1847 585
R811 VSS.n1858 VSS.n1855 585
R812 VSS.n1858 VSS.n1857 585
R813 VSS.n1860 VSS.n1859 585
R814 VSS.n1859 VSS.n115 585
R815 VSS.n1845 VSS.n1841 585
R816 VSS.n1845 VSS.n114 585
R817 VSS.n1844 VSS.n1840 585
R818 VSS.n1844 VSS.n1843 585
R819 VSS.n1837 VSS.n37 585
R820 VSS.n39 VSS.n37 585
R821 VSS.n2007 VSS.n2006 585
R822 VSS.n2006 VSS.n2005 585
R823 VSS.n36 VSS.n34 585
R824 VSS.n38 VSS.n36 585
R825 VSS.n1965 VSS.n1964 585
R826 VSS.n1966 VSS.n1965 585
R827 VSS.n1971 VSS.n57 585
R828 VSS.n1967 VSS.n57 585
R829 VSS.n1973 VSS.n1972 585
R830 VSS.n1975 VSS.n56 585
R831 VSS.n1977 VSS.n1976 585
R832 VSS.n52 VSS.n50 585
R833 VSS.n1984 VSS.n1983 585
R834 VSS.n1986 VSS.n44 585
R835 VSS.n1987 VSS.n41 585
R836 VSS.n1990 VSS.n1989 585
R837 VSS.n1886 VSS.n48 585
R838 VSS.n1960 VSS.n1958 585
R839 VSS.n1962 VSS.n1961 585
R840 VSS.n1963 VSS.n125 585
R841 VSS.n1969 VSS.n1968 585
R842 VSS.n1968 VSS.n1967 585
R843 VSS.n771 VSS.n770 585
R844 VSS.n770 VSS.n617 585
R845 VSS.n769 VSS.n767 585
R846 VSS.n769 VSS.n768 585
R847 VSS.n134 VSS.n133 585
R848 VSS.n133 VSS.n132 585
R849 VSS.n1869 VSS.n1868 585
R850 VSS.n1870 VSS.n1869 585